data_shelx
_audit_creation_date               2018-12-05
_audit_creation_method
;
Olex2 1.2
(compiled 2018.05.29 svn.r3508 for OlexSys, GUI svn.r5506)
;
_shelx_SHELXL_version_number       '2014/7'
_audit_contact_author_address      ?
_audit_contact_author_email        ?
_audit_contact_author_name         ''
_audit_contact_author_phone        ?
_publ_contact_author_id_orcid      ?
_publ_section_references
;
Dolomanov, O.V., Bourhis, L.J., Gildea, R.J, Howard, J.A.K. & Puschmann, H.
 (2009), J. Appl. Cryst. 42, 339-341.

Sheldrick, G.M. (2015). Acta Cryst. C71, 3-8.
;
_chemical_name_common              ?
_chemical_name_systematic          ?
_chemical_formula_moiety           'C4 H16 Cl2 Co N8 S4'
_chemical_formula_sum              'C4 H16 Cl2 Co N8 S4'
_chemical_formula_weight           434.32
_chemical_melting_point            ?
loop_
  _atom_type_symbol
  _atom_type_description
  _atom_type_scat_dispersion_real
  _atom_type_scat_dispersion_imag
  _atom_type_scat_source
 'C' 'C' 0.0056 0.0025
 'Neutron Data Booklet, ILL Grenoble, France (2003) ISBN 0-9704143-7-4'
 'H' 'H' 0.0000 0.0000
 'Neutron Data Booklet, ILL Grenoble, France (2003) ISBN 0-9704143-7-4'
 'N' 'N' 0.0100 0.0049
 'Neutron Data Booklet, ILL Grenoble, France (2003) ISBN 0-9704143-7-4'
 'S' 'S' 0.1632 0.1770
 'Neutron Data Booklet, ILL Grenoble, France (2003) ISBN 0-9704143-7-4'
 'Co' 'Co' 0.3344 1.3335
 'Neutron Data Booklet, ILL Grenoble, France (2003) ISBN 0-9704143-7-4'
 'Cl' 'Cl' 0.1930 0.2272
 'Neutron Data Booklet, ILL Grenoble, France (2003) ISBN 0-9704143-7-4'

_shelx_space_group_comment
;
The symmetry employed for this shelxl refinement is uniquely defined
by the following loop, which should always be used as a source of
symmetry information in preference to the above space-group names.
They are only intended as comments.
;
_space_group_crystal_system        'tetragonal'
_space_group_IT_number             86
_space_group_name_H-M_alt          'P 42/n'
_space_group_name_Hall             '-P 4bc'
loop_
  _space_group_symop_operation_xyz
 'x, y, z'
 '-x+1/2, -y+1/2, z'
 '-y, x+1/2, z+1/2'
 'y+1/2, -x, z+1/2'
 '-x, -y, -z'
 'x-1/2, y-1/2, -z'
 'y, -x-1/2, -z-1/2'
 '-y-1/2, x, -z-1/2'

_cell_length_a                     13.42760(10)
_cell_length_b                     13.42760(10)
_cell_length_c                     8.98850(10)
_cell_angle_alpha                  90
_cell_angle_beta                   90
_cell_angle_gamma                  90
_cell_volume                       1620.63(3)
_cell_formula_units_Z              4
_cell_measurement_reflns_used      ?
_cell_measurement_temperature      531(2)
_cell_measurement_theta_max        ?
_cell_measurement_theta_min        ?
_shelx_estimated_absorpt_T_max     ?
_shelx_estimated_absorpt_T_min     ?
_exptl_absorpt_coefficient_mu      3.123
_exptl_absorpt_correction_T_max    ?
_exptl_absorpt_correction_T_min    ?
_exptl_absorpt_correction_type     ?
_exptl_absorpt_process_details     ?
_exptl_absorpt_special_details     ?
_exptl_crystal_colour              ?
_exptl_crystal_density_diffrn      1.780
_exptl_crystal_density_meas        ?
_exptl_crystal_density_method      ?
_exptl_crystal_description         ?
_exptl_crystal_F_000               884
_exptl_crystal_size_max            ?
_exptl_crystal_size_mid            ?
_exptl_crystal_size_min            ?
_exptl_transmission_factor_max     ?
_exptl_transmission_factor_min     ?
_diffrn_reflns_av_R_equivalents    ?
_diffrn_reflns_av_unetI/netI       0.0744
_diffrn_reflns_Laue_measured_fraction_full  0.806
_diffrn_reflns_Laue_measured_fraction_max  0.681
_diffrn_reflns_limit_h_max         ?
_diffrn_reflns_limit_h_min         ?
_diffrn_reflns_limit_k_max         ?
_diffrn_reflns_limit_k_min         ?
_diffrn_reflns_limit_l_max         ?
_diffrn_reflns_limit_l_min         ?
_diffrn_reflns_number              5274
_diffrn_reflns_point_group_measured_fraction_full  0.806
_diffrn_reflns_point_group_measured_fraction_max  0.681
_diffrn_reflns_theta_full          30.664
_diffrn_reflns_theta_max           62.630
_diffrn_reflns_theta_min           4.883
_diffrn_ambient_temperature        531.3
_diffrn_detector_area_resol_mean   ?
_diffrn_measured_fraction_theta_full  0.806
_diffrn_measured_fraction_theta_max  0.681
_diffrn_measurement_device_type    ?
_diffrn_measurement_method         ?
_diffrn_radiation_type             neutrons
_diffrn_radiation_wavelength       0.850
_diffrn_source                     ?
_reflns_Friedel_coverage           0.000
_reflns_Friedel_fraction_full      .
_reflns_Friedel_fraction_max       .
_reflns_number_gt                  3991
_reflns_number_total               5274
_reflns_special_details
;
 Reflections were merged by SHELXL according to the crystal
 class for the calculation of statistics and refinement.
 
 _reflns_Friedel_fraction is defined as the number of unique
 Friedel pairs measured divided by the number that would be
 possible theoretically, ignoring centric projections and
 systematic absences.
;
_reflns_threshold_expression       'I > 2\s(I)'
_computing_cell_refinement         ?
_computing_data_collection         ?
_computing_data_reduction          ?
_computing_molecular_graphics      'Olex2 (Dolomanov et al., 2009)'
_computing_publication_material    'Olex2 (Dolomanov et al., 2009)'
_computing_structure_refinement    'ShelXL (Sheldrick, 2015)'
_computing_structure_solution      ?
_refine_diff_density_max           2.208
_refine_diff_density_min           -1.722
_refine_diff_density_rms           0.390
_refine_ls_extinction_coef         .
_refine_ls_extinction_method       none
_refine_ls_goodness_of_fit_ref     0.773
_refine_ls_hydrogen_treatment      refall
_refine_ls_matrix_type             full
_refine_ls_number_parameters       160
_refine_ls_number_reflns           5274
_refine_ls_number_restraints       120
_refine_ls_R_factor_all            0.1137
_refine_ls_R_factor_gt             0.0681
_refine_ls_restrained_S_all        0.766
_refine_ls_shift/su_max            0.000
_refine_ls_shift/su_mean           0.000
_refine_ls_structure_factor_coef   Fsqd
_refine_ls_weighting_details      
 'w=1/[\s^2^(Fo^2^)+(0.1293P)^2^+172.2143P] where P=(Fo^2^+2Fc^2^)/3'
_refine_ls_weighting_scheme        calc
_refine_ls_wR_factor_gt            0.2224
_refine_ls_wR_factor_ref           0.2640
_refine_special_details            ?
_olex2_refinement_description
;
1. Rigid body (RIGU) restrains
 All non-hydrogen atoms
 with sigma for 1-2 distances of 0.004 and sigma for 1-3 distances of 0.004
;
_atom_sites_solution_hydrogens     difmap
_atom_sites_solution_primary       ?
_atom_sites_solution_secondary     ?
loop_
  _atom_site_label
  _atom_site_type_symbol
  _atom_site_fract_x
  _atom_site_fract_y
  _atom_site_fract_z
  _atom_site_U_iso_or_equiv
  _atom_site_adp_type
  _atom_site_occupancy
  _atom_site_site_symmetry_order
  _atom_site_calc_flag
  _atom_site_refinement_flags_posn
  _atom_site_refinement_flags_adp
  _atom_site_refinement_flags_occupancy
  _atom_site_disorder_assembly
  _atom_site_disorder_group
 Co1 Co 0.0000 0.5000 0.5000 0.0082(7) Uani 1 2 d S TU P . .
 Cl1 Cl -0.00089(6) 0.51204(8) 0.77323(17) 0.00667(13) Uani 1 1 d . U . . .
 S1 S 0.1176(2) 0.6435(2) 0.4757(3) 0.0068(3) Uani 1 1 d . U . . .
 S2 S 0.1506(2) 0.3850(2) 0.4855(3) 0.0074(4) Uani 1 1 d . U . . .
 N1 N 0.01654(8) 0.74517(7) 0.68418(12) 0.00946(15) Uani 1 1 d . U . . .
 H1A H -0.0072(4) 0.8082(3) 0.7356(5) 0.0251(8) Uani 1 1 d . . . . .
 H1B H -0.0061(4) 0.6780(3) 0.7220(5) 0.0242(7) Uani 1 1 d . . . . .
 N2 N 0.11149(8) 0.83722(7) 0.52394(12) 0.01060(16) Uani 1 1 d . U . . .
 H2A H 0.0867(4) 0.9007(3) 0.5736(6) 0.0283(8) Uani 1 1 d . . . . .
 H2B H 0.1632(4) 0.8405(3) 0.4447(6) 0.0303(9) Uani 1 1 d . . . . .
 N3 N 0.24758(7) 0.49228(7) 0.69031(12) 0.00813(15) Uani 1 1 d . U . . .
 H3A H 0.3059(3) 0.5093(4) 0.7577(5) 0.0242(8) Uani 1 1 d . . . . .
 H3B H 0.1895(3) 0.5397(3) 0.6842(6) 0.0275(8) Uani 1 1 d . . . . .
 N4 N 0.33193(7) 0.35964(7) 0.59187(12) 0.00941(15) Uani 1 1 d . U . . .
 H4A H 0.3934(3) 0.3800(3) 0.6501(5) 0.0247(7) Uani 1 1 d . . . . .
 H4B H 0.3338(3) 0.2972(3) 0.5296(5) 0.0244(7) Uani 1 1 d . . . . .
 C1 C 0.07865(9) 0.74890(9) 0.56957(14) 0.00670(17) Uani 1 1 d . U . . .
 C2 C 0.24992(8) 0.41525(9) 0.59738(14) 0.00579(17) Uani 1 1 d . U . . .

loop_
  _atom_site_aniso_label
  _atom_site_aniso_U_11
  _atom_site_aniso_U_22
  _atom_site_aniso_U_33
  _atom_site_aniso_U_23
  _atom_site_aniso_U_13
  _atom_site_aniso_U_12
 Co1 0.0076(14) 0.0077(14) 0.0094(18) 0.0001(9) -0.0010(9) 0.0000(10)
 Cl1 0.0068(3) 0.0069(2) 0.0063(3) 0.0001(3) -0.00016(18) 0.00014(19)
 S1 0.0069(8) 0.0046(8) 0.0088(8) -0.0002(7) -0.0002(7) -0.0001(6)
 S2 0.0069(9) 0.0064(9) 0.0090(9) -0.0014(7) -0.0019(7) 0.0019(7)
 N1 0.0100(3) 0.0077(3) 0.0107(3) -0.0022(2) 0.0029(2) -0.0009(2)
 H1A 0.0300(19) 0.0172(13) 0.0282(17) -0.0108(12) 0.0095(14) 0.0019(12)
 H1B 0.0328(19) 0.0150(12) 0.0248(15) 0.0006(11) 0.0097(14) -0.0057(12)
 N2 0.0141(4) 0.0055(3) 0.0122(3) 0.0000(2) 0.0023(3) -0.0009(3)
 H2A 0.036(2) 0.0128(11) 0.036(2) -0.0056(12) 0.0097(16) -0.0003(12)
 H2B 0.039(2) 0.0211(15) 0.0312(19) -0.0004(13) 0.0199(17) -0.0044(14)
 N3 0.0076(3) 0.0073(3) 0.0095(3) -0.0022(2) -0.0016(2) 0.0003(2)
 H3A 0.0184(14) 0.0259(17) 0.0282(17) -0.0088(12) -0.0103(11) 0.0002(12)
 H3B 0.0247(15) 0.0247(15) 0.0332(19) -0.0120(14) -0.0077(13) 0.0120(13)
 N4 0.0063(3) 0.0083(3) 0.0137(4) -0.0025(2) -0.0019(2) 0.0013(2)
 H4A 0.0139(11) 0.0294(17) 0.0306(17) -0.0086(13) -0.0091(11) 0.0013(11)
 H4B 0.0226(14) 0.0207(13) 0.0300(17) -0.0132(13) -0.0022(13) 0.0032(11)
 C1 0.0072(4) 0.0049(4) 0.0080(4) -0.0003(3) -0.0002(3) 0.0000(3)
 C2 0.0045(3) 0.0059(4) 0.0069(4) -0.0005(3) -0.0007(3) 0.0001(3)

_geom_special_details
;
 All esds (except the esd in the dihedral angle between two l.s. planes)
 are estimated using the full covariance matrix.  The cell esds are taken
 into account individually in the estimation of esds in distances, angles
 and torsion angles; correlations between esds in cell parameters are only
 used when they are defined by crystal symmetry.  An approximate (isotropic)
 treatment of cell esds is used for estimating esds involving l.s. planes.
;
loop_
  _geom_bond_atom_site_label_1
  _geom_bond_atom_site_label_2
  _geom_bond_distance
  _geom_bond_site_symmetry_2
  _geom_bond_publ_flag
 Co1 Cl1 2.4612(15) . ?
 Co1 Cl1 2.4613(15) 5_566 ?
 Co1 S1 2.501(3) 5_566 ?
 Co1 S1 2.501(3) . ?
 Co1 S2 2.548(3) . ?
 Co1 S2 2.548(3) 5_566 ?
 S1 C1 1.729(3) . ?
 S2 C2 1.719(3) . ?
 N1 H1A 1.016(4) . ?
 N1 H1B 1.011(4) . ?
 N1 C1 1.3264(16) . ?
 N2 H2A 1.019(4) . ?
 N2 H2B 0.996(4) . ?
 N2 C1 1.3301(15) . ?
 N3 H3A 1.016(4) . ?
 N3 H3B 1.008(4) . ?
 N3 C2 1.3299(15) . ?
 N4 H4A 1.015(4) . ?
 N4 H4B 1.009(4) . ?
 N4 C2 1.3314(15) . ?

loop_
  _geom_angle_atom_site_label_1
  _geom_angle_atom_site_label_2
  _geom_angle_atom_site_label_3
  _geom_angle
  _geom_angle_site_symmetry_1
  _geom_angle_site_symmetry_3
  _geom_angle_publ_flag
 Cl1 Co1 Cl1 180.0 . 5_566 ?
 Cl1 Co1 S1 92.27(7) 5_566 5_566 ?
 Cl1 Co1 S1 87.73(7) 5_566 . ?
 Cl1 Co1 S1 87.73(7) . 5_566 ?
 Cl1 Co1 S1 92.27(7) . . ?
 Cl1 Co1 S2 84.56(7) 5_566 . ?
 Cl1 Co1 S2 95.44(7) 5_566 5_566 ?
 Cl1 Co1 S2 84.56(7) . 5_566 ?
 Cl1 Co1 S2 95.44(7) . . ?
 S1 Co1 S1 180.0 5_566 . ?
 S1 Co1 S2 87.76(9) . . ?
 S1 Co1 S2 92.24(9) . 5_566 ?
 S1 Co1 S2 87.76(9) 5_566 5_566 ?
 S1 Co1 S2 92.24(9) 5_566 . ?
 S2 Co1 S2 180.0 . 5_566 ?
 C1 S1 Co1 113.38(14) . . ?
 C2 S2 Co1 116.28(14) . . ?
 H1A N1 C1 121.3(3) . . ?
 H1B N1 H1A 119.7(4) . . ?
 H1B N1 C1 119.0(3) . . ?
 H2A N2 C1 120.2(3) . . ?
 H2B N2 H2A 120.3(4) . . ?
 H2B N2 C1 119.4(3) . . ?
 H3A N3 C2 122.1(3) . . ?
 H3B N3 H3A 119.1(4) . . ?
 H3B N3 C2 118.4(3) . . ?
 H4A N4 C2 120.2(3) . . ?
 H4B N4 H4A 119.3(4) . . ?
 H4B N4 C2 120.5(3) . . ?
 N1 C1 S1 122.58(13) . . ?
 N1 C1 N2 118.79(11) . . ?
 N2 C1 S1 118.62(14) . . ?
 N3 C2 S2 122.21(13) . . ?
 N3 C2 N4 118.62(10) . . ?
 N4 C2 S2 119.17(13) . . ?

loop_
  _atom_site_moment.label
  _atom_site_moment.chi_11
  _atom_site_moment.chi_22
  _atom_site_moment.chi_33
  _atom_site_moment.chi_23
  _atom_site_moment.chi_13
  _atom_site_moment.chi_12
  _atom_site_moment.determination
 Co1 0.25(10) 0.25(10) 0.52(039) 0 0 0 PND
  
_shelx_res_file
;
    shelx.res created by SHELXL-2014/7

TITL
CELL 0.85 13.4276 13.4276 8.9885 90 90 90
ZERR 4 0.0001 0.0001 0.0001 0 0 0
LATT 1
SYMM 0.5-X,0.5-Y,+Z
SYMM -Y,0.5+X,0.5+Z
SYMM 0.5+Y,-X,0.5+Z
NEUT
SFAC C H N S Co Cl
DISP C 0.0056 0.0025 17.1198
DISP Cl 0.193 0.2272 1130.8573
DISP Co 0.3344 1.3335 6508.8592
DISP H -0 0 0.6311
DISP N 0.01 0.0049 30.7768
DISP S 0.1632 0.177 889.0194
UNIT 16 64 32 16 4 8
RIGU

L.S. 10
PLAN  20
TEMP 258.15
BOND $H
LIST 4
fmap 2
acta
REM <olex2.extras>
REM <HklSrc "%.\\CCT4_1_4K_slow_mrg_transformed.hkl">
REM </olex2.extras>

WGHT    0.129300  172.214279
FVAR       0.67204
CO1   5    0.000000    0.500000    0.500000    10.50000    0.00763    0.00774 =
         0.00935    0.00009   -0.00097   -0.00001
CL1   6   -0.000892    0.512043    0.773227    11.00000    0.00678    0.00690 =
         0.00633    0.00009   -0.00016    0.00014
S1    4    0.117640    0.643492    0.475686    11.00000    0.00690    0.00457 =
         0.00881   -0.00022   -0.00020   -0.00006
S2    4    0.150630    0.385031    0.485461    11.00000    0.00687    0.00645 =
         0.00898   -0.00138   -0.00192    0.00190
N1    3    0.016543    0.745168    0.684178    11.00000    0.01002    0.00769 =
         0.01068   -0.00223    0.00290   -0.00093
H1A   2   -0.007242    0.808243    0.735582    11.00000    0.02995    0.01721 =
         0.02821   -0.01076    0.00950    0.00186
H1B   2   -0.006145    0.678013    0.721995    11.00000    0.03279    0.01502 =
         0.02483    0.00061    0.00969   -0.00572
N2    3    0.111488    0.837219    0.523942    11.00000    0.01410    0.00553 =
         0.01216   -0.00002    0.00228   -0.00088
H2A   2    0.086667    0.900750    0.573567    11.00000    0.03623    0.01279 =
         0.03586   -0.00561    0.00972   -0.00031
H2B   2    0.163225    0.840452    0.444733    11.00000    0.03855    0.02105 =
         0.03119   -0.00042    0.01992   -0.00445
N3    3    0.247584    0.492279    0.690307    11.00000    0.00762    0.00726 =
         0.00950   -0.00218   -0.00161    0.00030
H3A   2    0.305942    0.509302    0.757671    11.00000    0.01836    0.02592 =
         0.02822   -0.00877   -0.01030    0.00020
H3B   2    0.189536    0.539700    0.684183    11.00000    0.02467    0.02471 =
         0.03323   -0.01196   -0.00773    0.01202
N4    3    0.331928    0.359644    0.591873    11.00000    0.00625    0.00831 =
         0.01367   -0.00246   -0.00194    0.00133
H4A   2    0.393443    0.379986    0.650066    11.00000    0.01395    0.02941 =
         0.03065   -0.00855   -0.00906    0.00131
H4B   2    0.333812    0.297161    0.529648    11.00000    0.02265    0.02066 =
         0.03001   -0.01317   -0.00222    0.00321
C1    1    0.078654    0.748897    0.569569    11.00000    0.00720    0.00488 =
         0.00801   -0.00032   -0.00020   -0.00004
C2    1    0.249917    0.415247    0.597381    11.00000    0.00454    0.00593 =
         0.00689   -0.00049   -0.00067    0.00012
HKLF 4

REM
REM R1 =  0.0681 for    3991 Fo > 4sig(Fo)  and  0.1137 for all    5274 data
REM    160 parameters refined using    120 restraints

END

WGHT      0.0000     37.5135

REM Highest difference peak  2.208,  deepest hole -1.722,  1-sigma level  0.390
Q1    1   0.0222  0.8638  0.6667  11.00000  0.05    2.21
Q2    1   0.0866  0.8631  0.5366  11.00000  0.05    2.17
Q3    1   0.0029  0.7782  0.7149  11.00000  0.05    1.61
Q4    1   0.4170  0.3365  0.5288  11.00000  0.05    1.54
Q5    1   0.0187  0.6215  0.8869  11.00000  0.05    1.51
Q6    1   0.4273  0.4230  0.5321  11.00000  0.05    1.51
Q7    1   0.0178  0.6607  0.8441  11.00000  0.05    1.50
Q8    1   0.1173  0.4974  0.6516  11.00000  0.05    1.49
Q9    1   0.0693  0.6571  0.3588  11.00000  0.05    1.43
Q10   1  -0.0575  0.8981  0.7979  11.00000  0.05    1.42
Q11   1   0.2471  0.6056  0.5673  11.00000  0.05    1.39
Q12   1   0.2456  0.6550  0.7006  11.00000  0.05    1.34
Q13   1   0.1576  0.8845  0.3083  11.00000  0.05    1.34
Q14   1   0.0238  0.6639  0.7635  11.00000  0.05    1.33
Q15   1   0.1105  0.6674  0.4722  11.00000  0.05    1.31
Q16   1   0.0426  0.7846  0.3924  11.00000  0.05    1.31
Q17   1   0.3002  0.4869  0.8189  11.00000  0.05    1.31
Q18   1   0.2218  0.4585  0.7638  11.00000  0.05    1.30
Q19   1   0.2235  0.7284  0.6299  11.00000  0.05    1.30
Q20   1   0.3841  0.2391  0.4290  11.00000  0.05    1.29
;
_shelx_res_checksum                81289
_shelx_hkl_file
;
  -1   0  -3   966.0     6.9
  -1   0  -4   361.6     4.2
  -1   0  -5    42.5     2.9
  -1   0  -6  2860.7    14.7
  -1   0  -7  6543.9    27.6
  -1   0  -8   265.0     6.6
  -1   0  -9  5195.6    33.1
  -1   0 -10  1257.0    20.9
  -1   0 -11   354.0    25.0
  -1   0 -12  1339.4    49.8
  -1   0 -13   835.9    90.8
  -1   1  -2   253.8     7.6
  -1   1  -3   928.6    13.0
  -1   1  -4  3199.2    22.4
  -1   1  -5   877.6     7.4
  -1   1  -6  4044.9    16.3
  -1   1  -7  3271.6    14.1
  -1   1  -8    24.8     6.0
  -1   1  -9  3039.2    20.3
  -1   1 -10  1917.8    21.0
  -1   1 -11  1618.8    26.1
  -1   1 -12   674.7    34.5
  -1   1 -13   634.5    57.9
  -1   1 -14   120.3   123.4
  -2  -1  -1   466.1     9.0
  -2  -1  -2   956.5    10.9
  -2  -1  -3   102.9     2.8
  -2  -1  -4  2663.2    15.0
  -2  -1  -5   152.1     3.5
  -2  -1  -6    34.8     3.9
  -2  -1  -7  2453.2    14.2
  -2  -1  -8   136.6     6.4
  -2  -1  -9  2741.9    19.1
  -2  -1 -10   444.8    11.4
  -2  -1 -11  3751.8    38.8
  -2  -1 -12   890.5    31.3
  -2  -1 -13   -54.7    44.9
  -2  -1 -14   445.9    95.7
  -2   0  -3   644.0     6.7
  -2   0  -5   182.1     3.4
  -2   0  -7   703.4     7.0
  -2   0  -9  5578.2    37.3
  -2   0 -11    51.9    17.1
  -2   0 -13    50.8    62.4
  -2   1  -1   575.6     7.1
  -2   1  -3  2601.0    18.3
  -2   1  -4    37.3     2.3
  -2   1  -5   227.3     3.6
  -2   1  -6     8.8     3.8
  -2   1  -7  2324.2    15.9
  -2   1  -8  1759.2    12.5
  -2   1  -9    96.1     7.9
  -2   1 -10  2984.9    23.3
  -2   1 -11   265.1    18.3
  -2   1 -12  5255.6    63.0
  -2   1 -13  1320.7    51.0
  -2   1 -14   -46.5   118.2
  -2   2  -1     9.4     1.3
  -2   2  -3   413.1     7.0
  -2   2  -5  8125.4    50.0
  -2   2  -7  6580.9    34.4
  -2   2  -9     7.6     7.3
  -2   2 -11   647.1    16.7
  -2   2 -13   171.3    43.9
  -2   2 -15   -36.7   146.3
  -3  -2  -1  1212.6    13.2
  -3  -2  -3   115.7     2.4
  -3  -2  -4   637.2     5.6
  -3  -2  -5   818.4     6.5
  -3  -2  -6  3494.9    17.2
  -3  -2  -7  2880.4    18.0
  -3  -2  -8  1010.1    11.2
  -3  -2  -9  5718.2    28.5
  -3  -2 -10   895.8    12.6
  -3  -2 -11    -4.8    14.7
  -3  -2 -12  1226.0    26.1
  -3  -2 -13    36.9    33.0
  -3  -2 -14   255.5    57.8
  -3  -2 -15   125.7    84.8
  -3  -1  -2    82.5     1.6
  -3  -1  -3   441.2     4.8
  -3  -1  -4  1905.6    12.7
  -3  -1  -5   876.0     7.9
  -3  -1  -6   921.3     7.7
  -3  -1  -7  4404.6    21.2
  -3  -1  -8   460.4     7.8
  -3  -1  -9   582.6    10.0
  -3  -1 -10   621.3    12.6
  -3  -1 -11   658.6    17.2
  -3  -1 -12   338.8    23.5
  -3  -1 -13  1074.1    38.1
  -3  -1 -14    84.0    54.9
  -3  -1 -15   879.4   112.5
  -3   0  -1   630.2    16.1
  -3   0  -4    51.7     2.5
  -3   0  -5  1572.4    10.0
  -3   0  -7   512.8     6.3
  -3   0  -8  3583.3    22.2
  -3   0 -10  2443.5    21.7
  -3   0 -11   481.6    18.3
  -3   1  -2     9.7     1.4
  -3   1  -3   515.6     6.8
  -3   1  -4    72.2     3.0
  -3   1  -5  2543.8    14.2
  -3   1  -6  1026.8     8.4
  -3   1  -7    23.2     5.6
  -3   1  -8   180.1     7.3
  -3   1  -9   251.9     8.8
  -3   1 -10   263.6    11.2
  -3   1 -11 12456.7    77.6
  -3   1 -12    68.2    22.9
  -3   1 -13   939.1    37.7
  -3   1 -14   -37.7    55.5
  -3   1 -15   -73.6    90.7
  -3   2   0    -2.7     3.7
  -3   2  -2   389.7     5.6
  -3   2  -3  1687.3    11.3
  -3   2  -4  4129.2    19.5
  -3   2  -5  4594.7    23.7
  -3   2  -6  3834.7    21.0
  -3   2  -7   562.8     7.9
  -3   2  -8  1442.3    13.4
  -3   2  -9   317.5     8.7
  -3   2 -10  2245.8    18.1
  -3   2 -11  1889.7    20.7
  -3   2 -12   389.4    22.5
  -3   2 -13  1446.0    39.6
  -3   2 -14  3777.4    82.5
  -3   2 -15   269.6   100.0
  -3   2 -16   -87.0   186.5
  -3   3  -1    31.2     1.6
  -3   3  -2   337.8     4.7
  -3   3  -4   543.8     5.0
  -3   3  -5   883.5     7.3
  -3   3  -7  3144.5    21.8
  -3   3  -8  2735.1    20.3
  -3   3 -10   898.5    13.1
  -3   3 -11   109.6    13.4
  -3   3 -13   833.5    29.5
  -3   3 -14  1784.6    49.4
  -3   3 -16  2135.0   161.8
  -4  -3   0     9.3     3.3
  -4  -3  -1  1735.4    12.7
  -4  -3  -2   466.1     4.6
  -4  -3  -3  4230.3    24.8
  -4  -3  -4  4461.5    24.3
  -4  -3  -5   108.7     3.9
  -4  -3  -6   453.7     7.2
  -4  -3  -7   169.0     7.1
  -4  -3  -8  1108.8    12.6
  -4  -3  -9   155.4     8.8
  -4  -3 -10   900.2    13.6
  -4  -3 -11   263.3    15.1
  -4  -3 -12  2767.1    33.2
  -4  -3 -13  1368.9    37.5
  -4  -3 -14   221.4    47.2
  -4  -3 -15  -205.7    76.5
  -4  -3 -16  -162.5   175.5
  -4  -2  -1    12.8     2.5
  -4  -2  -3   424.9     3.6
  -4  -2  -5   106.3     3.7
  -4  -2  -7   641.1     8.6
  -4  -2  -9   468.8     9.1
  -4  -2 -11    55.1    14.9
  -4  -2 -13    24.8    36.8
  -4  -2 -15   -69.9    98.3
  -4  -1  -1    62.1     2.0
  -4  -1  -2   254.6     6.0
  -4  -1  -3  2153.5    16.0
  -4  -1  -4  7882.5    41.0
  -4  -1  -5    69.9     3.5
  -4  -1  -6    35.4     4.5
  -4  -1  -7   324.1     6.2
  -4  -1  -8   722.2     8.9
  -4  -1  -9   617.7     9.9
  -4  -1 -10  4748.8    31.1
  -4  -1 -11    10.3    15.6
  -4  -1 -12    53.6    23.8
  -4  -1 -13   591.9    38.2
  -4  -1 -14  1359.1    61.5
  -4  -1 -15    57.5    90.1
  -4  -1 -16   -57.6   154.7
  -4   0  -1    44.9     1.1
  -4   0  -3   101.5     2.7
  -4   0  -5  1099.4     9.4
  -4   0  -7   360.2     6.4
  -4   0  -9   508.4    10.5
  -4   0 -11  1483.1    33.6
  -4   0 -13  1101.3    56.5
  -4   0 -15  1180.9   114.4
  -4   1   0     6.8     3.2
  -4   1  -1   692.3     7.0
  -4   1  -2  1093.9    15.1
  -4   1  -3   624.5     5.9
  -4   1  -4  2546.4    12.1
  -4   1  -5   910.9     7.7
  -4   1  -6   673.2     7.1
  -4   1  -7  2871.9    18.7
  -4   1  -8  2857.5    16.7
  -4   1  -9   338.2     8.8
  -4   1 -10   346.4    13.1
  -4   1 -11   339.8    16.3
  -4   1 -12   535.6    24.0
  -4   1 -13   208.7    36.4
  -4   1 -14  2327.4    66.9
  -4   1 -15   551.7    89.3
  -4   1 -16   175.3   156.2
  -4   2  -1   159.8     4.4
  -4   2  -3  1207.0     7.8
  -4   2  -5  4217.3    22.8
  -4   2  -7   145.1     6.4
  -4   2  -9   228.3     8.4
  -4   2 -11  1124.1    18.4
  -4   2 -13   329.2    34.6
  -4   2 -15   -41.6    98.7
  -4   3   0    11.1     3.4
  -4   3  -1   509.4     5.3
  -4   3  -2   204.6     3.5
  -4   3  -3   184.9     3.2
  -4   3  -4  5343.9    24.8
  -4   3  -5  2258.8    12.4
  -4   3  -6  3331.7    20.5
  -4   3  -7    19.7     6.8
  -4   3  -8  2296.3    18.1
  -4   3  -9   950.7    11.2
  -4   3 -10  2612.4    21.2
  -4   3 -11    22.0    14.7
  -4   3 -12  2599.0    32.6
  -4   3 -13     3.9    30.1
  -4   3 -14   103.1    47.2
  -4   3 -15   -54.5    76.9
  -4   3 -16    -6.4   133.4
  -4   4  -1  1247.7    10.4
  -4   4  -3    45.4     2.6
  -4   4  -5    50.5     4.4
  -4   4  -7   262.8     8.2
  -4   4  -9     4.4     9.4
  -4   4 -11   224.7    16.3
  -4   4 -13    86.0    33.4
  -4   4 -15   122.5    71.8
  -4   4 -17  1134.1   224.9
  -5  -4   0     9.3     3.7
  -5  -4  -1    21.1     2.2
  -5  -4  -2  1819.6     9.8
  -5  -4  -3   236.8     3.9
  -5  -4  -4   330.9     4.6
  -5  -4  -5   280.9     5.7
  -5  -4  -6  1528.1    14.8
  -5  -4  -7   503.3     9.4
  -5  -4  -8   616.2    10.2
  -5  -4  -9  6642.8    41.1
  -5  -4 -10  1778.5    18.3
  -5  -4 -11   728.8    17.4
  -5  -4 -12   487.0    24.5
  -5  -4 -13  1167.5    39.2
  -5  -4 -14  1276.5    53.5
  -5  -4 -15   510.7    79.9
  -5  -4 -16    21.7   137.6
  -5  -4 -17  -172.4   230.1
  -5  -3   0   489.0     9.0
  -5  -3  -1    38.3     2.3
  -5  -3  -2   176.2     2.9
  -5  -3  -3  2586.2     9.5
  -5  -3  -4   174.2     3.7
  -5  -3  -5  4622.6    30.8
  -5  -3  -6   959.0    10.4
  -5  -3  -7   207.1     7.8
  -5  -3  -8   141.0     8.8
  -5  -3  -9  2515.0    20.0
  -5  -3 -10    12.4    11.9
  -5  -3 -11  9132.8    64.4
  -5  -3 -12     5.2    21.3
  -5  -3 -13   336.5    31.9
  -5  -3 -14   -55.7    52.1
  -5  -3 -15  3174.3   105.7
  -5  -3 -16   485.3   157.1
  -5  -2   0    -1.5     3.3
  -5  -2  -1   633.2     6.2
  -5  -2  -2  4170.3    24.3
  -5  -2  -3   571.4     6.9
  -5  -2  -4   860.6     7.5
  -5  -2  -5     4.9     4.0
  -5  -2  -6   492.6     7.6
  -5  -2  -7   624.7     8.8
  -5  -2  -8   196.3     8.5
  -5  -2  -9  1237.5    12.6
  -5  -2 -10   288.6    11.8
  -5  -2 -11  1735.0    21.9
  -5  -2 -12  3591.7    42.8
  -5  -2 -13  2057.2    45.2
  -5  -2 -14   173.6    60.8
  -5  -2 -15   657.2   103.5
  -5  -2 -16   121.6   181.4
  -5  -1   0   256.0     6.4
  -5  -1  -1  1124.7     6.5
  -5  -1  -2    76.9     3.2
  -5  -1  -3  4393.2    47.0
  -5  -1  -4  3481.4    20.5
  -5  -1  -5  2547.8    15.2
  -5  -1  -6  3926.5    20.3
  -5  -1  -7  2605.6    16.9
  -5  -1  -8  2791.3    19.0
  -5  -1  -9  1240.7    13.0
  -5  -1 -10   154.5    12.2
  -5  -1 -11  1168.3    22.0
  -5  -1 -12  1207.8    30.5
  -5  -1 -13  1475.7    46.9
  -5  -1 -14   646.9    68.0
  -5  -1 -15   926.4   114.4
  -5   0  -1   249.3     2.5
  -5   0  -2  2489.6    32.3
  -5   0  -3   361.2     4.9
  -5   0  -4  1224.7    11.1
  -5   0  -6   702.7     7.7
  -5   0  -7  2919.6    18.0
  -5   0  -8   877.5    12.2
  -5   0  -9   378.7    10.8
  -5   0 -11  1588.5    26.8
  -5   0 -12   923.7    31.6
  -5   0 -13  1463.7    86.9
  -5   1   0   350.1     7.0
  -5   1  -1   198.7     2.5
  -5   1  -2   279.5     5.5
  -5   1  -3   735.2     7.4
  -5   1  -4    22.4     3.8
  -5   1  -5    87.0     3.9
  -5   1  -6  1602.6    11.3
  -5   1  -7  2387.8    15.2
  -5   1  -8   486.5     8.4
  -5   1  -9  1941.1    16.0
  -5   1 -10    -0.8    11.9
  -5   1 -11  3212.7    33.2
  -5   1 -12   209.8    24.4
  -5   1 -13  2757.3    51.1
  -5   1 -14   572.1    57.0
  -5   1 -15  1814.1    99.4
  -5   1 -16   429.8   154.0
  -5   2   0     8.6     3.4
  -5   2  -1  2667.1    21.3
  -5   2  -2   416.4     3.2
  -5   2  -3   166.5     3.0
  -5   2  -4  2825.9    14.7
  -5   2  -5  1239.4    10.1
  -5   2  -6   755.1     8.0
  -5   2  -7   449.6     7.9
  -5   2  -8   995.1    12.1
  -5   2  -9   155.8     9.1
  -5   2 -10  1871.2    18.4
  -5   2 -11    40.8    14.8
  -5   2 -12   766.0    23.1
  -5   2 -13   342.5    33.9
  -5   2 -14  1362.9    61.0
  -5   2 -15  -260.4   101.6
  -5   2 -16    74.6   185.5
  -5   3   0   102.5     3.7
  -5   3  -1   748.0     9.4
  -5   3  -2  1169.7     8.0
  -5   3  -3  2798.8    12.7
  -5   3  -4   855.1     8.1
  -5   3  -5    73.7     4.4
  -5   3  -6  4188.1    25.4
  -5   3  -7 10882.2    66.5
  -5   3  -8   125.2     9.1
  -5   3  -9    90.1     9.1
  -5   3 -10   -12.0    11.3
  -5   3 -11   378.6    15.8
  -5   3 -12   286.4    21.9
  -5   3 -13   526.8    35.6
  -5   3 -14   609.9    54.4
  -5   3 -15   202.3    86.2
  -5   3 -16     9.1   156.0
  -5   4   0    18.7     3.4
  -5   4  -1  1957.6    13.5
  -5   4  -2  2645.5    13.6
  -5   4  -3  5027.6    24.7
  -5   4  -4  2549.4    13.8
  -5   4  -5   791.4     8.5
  -5   4  -6  5034.6    30.5
  -5   4  -7    40.8     8.1
  -5   4  -8   347.9     9.9
  -5   4  -9  3039.4    21.7
  -5   4 -10   524.7    13.3
  -5   4 -11     9.9    15.6
  -5   4 -12  1141.0    26.8
  -5   4 -13   846.0    37.1
  -5   4 -14   361.8    54.7
  -5   4 -15    48.8    78.6
  -5   4 -16   -87.9   136.0
  -5   4 -17   868.1   233.0
  -5   5  -1  3313.4    19.4
  -5   5  -2   215.3     3.3
  -5   5  -3  1633.7    10.6
  -5   5  -4  1511.8    11.1
  -5   5  -6  3225.7    23.0
  -5   5  -7  2764.7    24.5
  -5   5  -8   307.9     9.7
  -5   5  -9  2002.6    17.9
  -5   5 -11  2971.8    29.6
  -5   5 -12   179.6    26.4
  -5   5 -13  1347.2    45.8
  -5   5 -14   146.2    56.7
  -5   5 -16   810.7   164.4
  -6  -5   0    22.4     3.8
  -6  -5  -1  4247.3    23.9
  -6  -5  -2  1190.3     8.7
  -6  -5  -3   215.7     4.4
  -6  -5  -4  5059.8    24.5
  -6  -5  -5   745.0     9.3
  -6  -5  -6   251.0     8.3
  -6  -5  -7  2249.1    17.6
  -6  -5  -8    81.7     9.7
  -6  -5  -9   420.8    11.9
  -6  -5 -10   174.9    14.3
  -6  -5 -11   178.3    20.3
  -6  -5 -12  2529.0    37.7
  -6  -5 -13  1866.1    46.3
  -6  -5 -14  -111.4    58.9
  -6  -5 -15    -7.8    96.1
  -6  -5 -16   -53.9   168.9
  -6  -4  -1    25.9     2.5
  -6  -4  -3  1113.3     7.8
  -6  -4  -5  1246.3    10.5
  -6  -4  -7  2135.3    17.1
  -6  -4  -9   755.7    12.1
  -6  -4 -11   135.2    17.6
  -6  -4 -13   460.0    35.1
  -6  -4 -15  3071.9    99.2
  -6  -3  -1  2565.7    12.9
  -6  -3  -2   946.5     5.6
  -6  -3  -4  3101.0    19.9
  -6  -3  -5   427.4     6.1
  -6  -3  -7  1306.5    13.3
  -6  -3  -8   888.8    10.9
  -6  -3 -10   696.7    14.5
  -6  -3 -11  1800.3    24.0
  -6  -3 -13   845.6    35.8
  -6  -3 -14   352.1    52.0
  -6  -3 -16   229.6   168.1
  -6  -2  -1   279.4     3.3
  -6  -2  -3    40.1     3.6
  -6  -2  -5    25.6     4.8
  -6  -2  -7  4142.1    23.7
  -6  -2  -9   404.1     9.8
  -6  -2 -11   269.9    16.1
  -6  -2 -13   491.3    39.3
  -6  -2 -15   304.8    99.8
  -6  -1   0    11.6     3.0
  -6  -1  -1    12.0     1.6
  -6  -1  -2   140.3     4.2
  -6  -1  -3  1278.6    11.7
  -6  -1  -4   163.6     4.9
  -6  -1  -5    96.1     5.1
  -6  -1  -6  3398.6    19.5
  -6  -1  -7     8.3     6.2
  -6  -1  -8   666.3     9.1
  -6  -1  -9  1322.5    13.8
  -6  -1 -10   277.1    13.6
  -6  -1 -11    55.4    20.0
  -6  -1 -12  2821.1    42.6
  -6  -1 -13     1.8    43.7
  -6  -1 -14    -4.8    66.4
  -6  -1 -15   145.1   110.0
  -6   0  -1   948.4     5.4
  -6   0  -5  2550.2    21.3
  -6   0  -7    28.4     6.5
  -6   0 -11   408.1    22.0
  -6   0 -13  1288.0    87.6
  -6   1   0    19.2     3.6
  -6   1  -1  1082.4     6.9
  -6   1  -2    37.2     3.4
  -6   1  -3   254.2     4.8
  -6   1  -4  3534.7    22.3
  -6   1  -5  1974.5    15.3
  -6   1  -6   277.2     6.1
  -6   1  -7   254.3     6.9
  -6   1  -8  2697.8    17.8
  -6   1  -9   966.9    11.7
  -6   1 -10   336.4    13.4
  -6   1 -11   143.9    19.2
  -6   1 -12  1232.2    32.7
  -6   1 -13   -37.9    41.6
  -6   1 -14  1675.5    72.3
  -6   1 -15   243.7   108.6
  -6   2  -1   119.0     2.7
  -6   2  -3   283.5     4.6
  -6   2  -5  2551.4    17.3
  -6   2  -7    80.3     7.6
  -6   2  -9   243.4     9.4
  -6   2 -11  1540.0    21.9
  -6   2 -13   613.7    36.3
  -6   2 -15   900.3   100.8
  -6   3  -1   363.4     4.5
  -6   3  -2   902.1     6.2
  -6   3  -4 12878.7    88.7
  -6   3  -5   374.7     5.8
  -6   3  -7  1653.6    14.9
  -6   3  -8     9.3     8.8
  -6   3 -10  1084.8    16.3
  -6   3 -11    61.6    17.6
  -6   3 -13   952.5    36.8
  -6   3 -14  3486.4    70.1
  -6   3 -16   289.8   144.0
  -6   4  -1   217.4     3.3
  -6   4  -3    23.2     3.1
  -6   4  -5    32.7     5.6
  -6   4  -7   422.3     9.7
  -6   4  -9   662.4    11.8
  -6   4 -11    -3.5    17.7
  -6   4 -13    60.8    33.3
  -6   4 -15  3864.8   101.3
  -6   5   0    24.4     4.1
  -6   5  -1  1571.2     9.4
  -6   5  -2  1217.3     8.1
  -6   5  -3  5689.7    30.4
  -6   5  -4  3788.4    21.3
  -6   5  -5    37.3     6.3
  -6   5  -6    97.9     8.8
  -6   5  -7   198.9     9.6
  -6   5  -8     8.8     9.1
  -6   5  -9   886.8    13.2
  -6   5 -10    75.3    14.0
  -6   5 -11  1185.2    21.9
  -6   5 -12  1557.4    31.2
  -6   5 -13  3652.0    53.7
  -6   5 -14   899.7    61.7
  -6   5 -15   647.3    98.0
  -6   5 -16  -114.1   170.6
  -6   6  -1   178.9     3.6
  -6   6  -5   121.1     6.8
  -6   6  -7   146.7     9.9
  -6   6 -11    49.7    19.2
  -6   6 -13   866.4    50.7
  -7  -6   0     1.3     4.7
  -7  -6  -1   127.4     4.0
  -7  -6  -2   494.7     5.5
  -7  -6  -3   219.3     5.6
  -7  -6  -4  3445.7    19.9
  -7  -6  -5   534.9     9.5
  -7  -6  -6  6106.8    41.4
  -7  -6  -7  1388.1    15.1
  -7  -6  -8   784.5    11.9
  -7  -6  -9   158.6    12.3
  -7  -6 -10  2704.5    27.2
  -7  -6 -11   103.2    22.0
  -7  -6 -12  3243.3    47.6
  -7  -6 -13  1125.5    47.1
  -7  -6 -14   739.5    68.3
  -7  -6 -15   146.6   107.5
  -7  -6 -16   -58.8   168.5
  -7  -5   0  1564.8    17.5
  -7  -5  -1  6059.3    30.8
  -7  -5  -2   570.2     6.3
  -7  -5  -3   546.3     6.5
  -7  -5  -4   138.0     5.9
  -7  -5  -5  3485.6    23.0
  -7  -5  -6     8.1     8.2
  -7  -5  -7  1355.9    14.1
  -7  -5  -8   393.2    10.5
  -7  -5  -9  1912.5    18.2
  -7  -5 -10   227.5    15.4
  -7  -5 -11     8.6    19.7
  -7  -5 -12    -1.3    27.9
  -7  -5 -13    29.6    40.8
  -7  -5 -14   386.2    63.8
  -7  -5 -15  1701.6   110.0
  -7  -5 -16   818.1   161.5
  -7  -5 -17   -86.4   291.3
  -7  -4   0    16.6     4.2
  -7  -4  -1    28.2     2.7
  -7  -4  -2  5183.9    32.8
  -7  -4  -3    27.1     3.5
  -7  -4  -4   348.9     6.1
  -7  -4  -5    59.4     6.1
  -7  -4  -6  2227.3    19.3
  -7  -4  -7  2173.3    18.4
  -7  -4  -8  2347.4    18.3
  -7  -4  -9    45.4    11.6
  -7  -4 -10   148.0    14.0
  -7  -4 -11  1364.1    22.7
  -7  -4 -12    10.7    26.4
  -7  -4 -13   508.6    44.0
  -7  -4 -14   -40.4    65.6
  -7  -4 -15   156.3    90.9
  -7  -4 -16   -64.9   157.5
  -7  -3   0   195.0     3.8
  -7  -3  -1   724.8     6.0
  -7  -3  -2  2081.9    10.1
  -7  -3  -3   719.6     9.8
  -7  -3  -4   190.6     5.4
  -7  -3  -5   121.6     6.0
  -7  -3  -6   243.5     7.6
  -7  -3  -7  2579.1    19.3
  -7  -3  -8   460.4     9.9
  -7  -3  -9   167.3    10.7
  -7  -3 -10   396.4    14.7
  -7  -3 -11  2518.8    27.2
  -7  -3 -12    34.8    24.4
  -7  -3 -13  1628.9    44.5
  -7  -3 -14   -68.5    59.2
  -7  -3 -15   156.2    88.8
  -7  -3 -16   245.3   158.6
  -7  -2   0    -1.2     3.9
  -7  -2  -1  1820.3     8.3
  -7  -2  -2  1299.9    11.3
  -7  -2  -3    63.3     4.7
  -7  -2  -4  9505.4    59.3
  -7  -2  -5   564.6     7.1
  -7  -2  -6   637.0     7.8
  -7  -2  -7  1243.2    13.2
  -7  -2  -8  2130.9    14.9
  -7  -2  -9   187.7    10.6
  -7  -2 -10  1413.1    17.2
  -7  -2 -11  1578.0    22.5
  -7  -2 -12   100.4    24.3
  -7  -2 -13   428.5    38.8
  -7  -2 -14   948.5    70.7
  -7  -2 -15  -239.6   111.7
  -7  -2 -16  1003.5   198.8
  -7  -1   0  1826.8    16.5
  -7  -1  -1   636.4     5.4
  -7  -1  -2   325.2     6.2
  -7  -1  -3  8065.3    75.0
  -7  -1  -4    73.3     5.3
  -7  -1  -5   512.9     7.5
  -7  -1  -6    77.1     5.8
  -7  -1  -7  8538.8    40.4
  -7  -1  -8   163.5     7.7
  -7  -1  -9   163.0    10.8
  -7  -1 -10   163.5    14.5
  -7  -1 -11   688.1    22.0
  -7  -1 -12    -1.9    29.4
  -7  -1 -13    92.5    44.9
  -7  -1 -14    30.6    72.2
  -7  -1 -15   -17.0   118.3
  -7   0  -1   979.6     6.8
  -7   0  -2   877.3     9.1
  -7   0  -3   479.5     6.4
  -7   0  -4  4777.0    40.5
  -7   0  -5  1947.5    15.3
  -7   0  -6  3367.6    22.2
  -7   0  -8    29.6     8.3
  -7   0  -9  1552.6    20.1
  -7   0 -10   131.5    20.6
  -7   0 -11  1813.6    52.6
  -7   0 -12   176.1    30.9
  -7   0 -13   651.8    55.6
  -7   1   0    23.7     3.4
  -7   1  -1  3886.8    16.6
  -7   1  -2    74.1     4.2
  -7   1  -3  1336.5    12.2
  -7   1  -4   144.5     5.6
  -7   1  -5   116.7     5.8
  -7   1  -6    75.3     6.2
  -7   1  -7  1349.8    12.4
  -7   1  -8   171.8     8.4
  -7   1  -9  4879.9    25.3
  -7   1 -10   928.4    16.0
  -7   1 -11  1330.8    24.6
  -7   1 -12   -54.1    28.6
  -7   1 -13  1622.4    55.1
  -7   1 -14   320.7    67.0
  -7   1 -15  4343.2   142.4
  -7   2   0    15.0     3.9
  -7   2  -1  1063.9     6.2
  -7   2  -2  9778.4    85.4
  -7   2  -3  8663.2    64.2
  -7   2  -4   408.9     6.9
  -7   2  -5  2995.1    17.0
  -7   2  -6  1964.0    14.6
  -7   2  -7   381.1     8.2
  -7   2  -8  2475.1    16.8
  -7   2  -9   897.6    12.4
  -7   2 -10   556.4    14.4
  -7   2 -11    14.5    16.7
  -7   2 -12  3550.6    40.9
  -7   2 -13    53.0    37.3
  -7   2 -14   481.2    59.7
  -7   2 -15   787.6   107.1
  -7   2 -16  -176.6   187.1
  -7   3   0   898.9    12.1
  -7   3  -1   121.6     2.8
  -7   3  -2   224.4     3.2
  -7   3  -3   270.0     4.9
  -7   3  -4   479.6     6.7
  -7   3  -5 15307.1   107.5
  -7   3  -6    43.9     6.8
  -7   3  -7    46.4     8.8
  -7   3  -8   172.0     8.9
  -7   3  -9   146.0    11.5
  -7   3 -10   -13.6    13.9
  -7   3 -11  3521.4    35.9
  -7   3 -12   246.2    26.5
  -7   3 -13   -75.0    37.8
  -7   3 -14    71.4    59.2
  -7   3 -15   155.9    87.8
  -7   3 -16  -273.7   155.4
  -7   4   0    16.9     4.4
  -7   4  -1   573.1     5.4
  -7   4  -2  1256.1     9.4
  -7   4  -3  2652.1    14.5
  -7   4  -4  2381.5    13.4
  -7   4  -5   154.6     6.9
  -7   4  -6  4730.7    26.4
  -7   4  -7  1793.0    17.7
  -7   4  -8   361.3    10.1
  -7   4  -9   332.5    12.1
  -7   4 -10     0.9    13.8
  -7   4 -11   167.5    19.2
  -7   4 -12   277.0    26.9
  -7   4 -13   292.6    39.3
  -7   4 -14   458.7    60.3
  -7   4 -15   953.7   100.7
  -7   4 -16   -60.2   154.7
  -7   4 -17   275.3   287.3
  -7   5   0  3408.7    24.4
  -7   5  -1  6395.2    25.8
  -7   5  -2   640.7     6.2
  -7   5  -3  2288.4    11.8
  -7   5  -4  2013.9    15.6
  -7   5  -5   203.1     7.6
  -7   5  -6   842.1    11.7
  -7   5  -7  1664.0    17.2
  -7   5  -8   -34.5    10.4
  -7   5  -9  1868.5    18.2
  -7   5 -10   634.2    17.3
  -7   5 -11  5781.4    45.8
  -7   5 -12   133.1    27.9
  -7   5 -13  2754.3    53.8
  -7   5 -14  1067.1    64.8
  -7   5 -15   467.4    94.0
  -7   5 -16   829.1   161.5
  -7   6   0    14.5     4.4
  -7   6  -1  1042.5     7.6
  -7   6  -2    57.6     4.1
  -7   6  -3  2555.8    16.0
  -7   6  -4 10698.0    59.6
  -7   6  -5   786.2    10.0
  -7   6  -6  1524.8    14.6
  -7   6  -7  3820.9    28.4
  -7   6  -8   476.0    11.2
  -7   6  -9   598.3    13.8
  -7   6 -10    23.2    16.1
  -7   6 -11    -6.9    20.3
  -7   6 -12  1451.0    36.3
  -7   6 -13   711.1    47.8
  -7   6 -14   519.4    66.5
  -7   6 -15  -205.3   107.5
  -7   6 -16  -302.7   190.5
  -7   7  -1   126.9     4.2
  -7   7  -2   318.3     5.6
  -7   7  -3  1806.1    13.9
  -7   7  -4   157.2     7.5
  -7   7  -5   171.3     8.8
  -7   7  -6   111.7     9.6
  -7   7  -8    33.8    11.3
  -7   7  -9  1138.1    17.5
  -7   7 -10   469.0    19.5
  -7   7 -11   561.4    25.6
  -7   7 -12    -1.8    31.1
  -7   7 -13   275.7    46.3
  -7   7 -15  1135.6   154.2
  -8  -7   0     3.5     6.4
  -8  -7  -1   383.0     5.2
  -8  -7  -2    29.8     4.8
  -8  -7  -3   930.2     9.8
  -8  -7  -4  2261.7    18.2
  -8  -7  -5  1174.6    13.2
  -8  -7  -6    58.6     9.3
  -8  -7  -7   471.1    14.0
  -8  -7  -8   798.1    14.2
  -8  -7  -9   188.7    14.7
  -8  -7 -10  1438.3    23.4
  -8  -7 -11    56.4    26.2
  -8  -7 -12    37.4    33.5
  -8  -7 -13  1169.9    58.6
  -8  -7 -14  1687.6    90.4
  -8  -7 -15   467.2   126.4
  -8  -7 -16   380.0   220.8
  -8  -6  -1    39.4     3.6
  -8  -6  -3   138.4     5.6
  -8  -6  -5   229.9     8.2
  -8  -6  -7    57.1     9.9
  -8  -6  -9  3055.9    26.3
  -8  -6 -11   146.2    24.4
  -8  -6 -13   257.6    47.7
  -8  -6 -15  3195.5   134.9
  -8  -5   0    25.8     4.8
  -8  -5  -1   122.9     3.9
  -8  -5  -2    50.2     4.2
  -8  -5  -3    71.3     4.8
  -8  -5  -4 11887.8    73.7
  -8  -5  -5  1494.4    14.0
  -8  -5  -6  2416.8    19.5
  -8  -5  -7   687.9    11.2
  -8  -5  -8   688.5    13.0
  -8  -5  -9  2083.8    20.5
  -8  -5 -10   247.5    16.1
  -8  -5 -11   299.9    22.1
  -8  -5 -12   -42.3    30.4
  -8  -5 -13   506.0    46.2
  -8  -5 -14  1661.4    75.5
  -8  -5 -15  1045.7   115.3
  -8  -5 -16    87.0   189.7
  -8  -4  -1  2173.9    12.9
  -8  -4  -3   494.9     6.1
  -8  -4  -5  2303.9    16.2
  -8  -4  -7   180.4     9.5
  -8  -4  -9    -3.0    12.0
  -8  -4 -11  1670.5    26.8
  -8  -4 -13   -53.1    42.2
  -8  -4 -15  -249.7   107.2
  -8  -3   0    -2.6     4.3
  -8  -3  -1   524.9     5.1
  -8  -3  -2   388.5     5.0
  -8  -3  -3    97.7     5.0
  -8  -3  -4  2964.3    17.9
  -8  -3  -5   153.0     6.4
  -8  -3  -6  1384.3    13.1
  -8  -3  -7   460.6     9.3
  -8  -3  -8  5415.3    35.6
  -8  -3  -9   586.0    12.8
  -8  -3 -10  1604.5    20.7
  -8  -3 -11    18.2    20.1
  -8  -3 -12  6347.2    61.6
  -8  -3 -13   382.8    39.6
  -8  -3 -14   159.6    60.1
  -8  -3 -15   220.2   108.2
  -8  -3 -16   -94.4   196.5
  -8  -2  -1   137.2     3.0
  -8  -2  -3    45.2     5.3
  -8  -2  -5   852.7     9.0
  -8  -2  -7     3.6     7.6
  -8  -2  -9     0.3    10.6
  -8  -2 -11   190.7    19.7
  -8  -2 -13   178.4    41.7
  -8  -2 -15   992.6   113.8
  -8  -1   0    32.4     4.8
  -8  -1  -1  1260.8     7.7
  -8  -1  -2   710.3     8.2
  -8  -1  -3  1391.7    12.2
  -8  -1  -4  2193.8    14.7
  -8  -1  -5   951.4     9.2
  -8  -1  -6  4404.2    21.8
  -8  -1  -7   235.2     7.2
  -8  -1  -8   470.9     9.2
  -8  -1  -9  2112.2    17.8
  -8  -1 -10    23.6    14.6
  -8  -1 -11    86.7    22.8
  -8  -1 -12  1023.8    35.9
  -8  -1 -13    45.2    48.5
  -8  -1 -14   108.0    75.2
  -8  -1 -15   -33.0   122.1
  -8   0  -1   105.8     2.9
  -8   0  -3   624.1     7.6
  -8   0  -5   127.4     6.4
  -8   0  -7  3986.3    20.7
  -8   0  -9    35.5    13.9
  -8   0 -11   303.7    29.4
  -8   0 -13  2462.2    88.0
  -8   1   0     6.0     3.7
  -8   1  -1    37.7     2.5
  -8   1  -2  1151.1    10.8
  -8   1  -3   557.8     7.1
  -8   1  -4   507.2     6.8
  -8   1  -5    14.8     5.8
  -8   1  -6  1164.1    10.0
  -8   1  -7   667.4     8.9
  -8   1  -8   323.0     8.6
  -8   1  -9  1186.6    14.1
  -8   1 -10  6331.8    37.8
  -8   1 -11   314.6    20.8
  -8   1 -12   912.2    34.7
  -8   1 -13  1170.9    53.3
  -8   1 -14   911.0    86.7
  -8   1 -15   255.9   117.0
  -8   2  -1  1146.7     7.5
  -8   2  -3  1111.9    10.7
  -8   2  -5  1761.3    12.9
  -8   2  -7   937.8    10.8
  -8   2  -9    54.1    10.7
  -8   2 -11   972.1    22.4
  -8   2 -13   -25.5    37.8
  -8   2 -15   190.9   105.0
  -8   3   0    -4.2     4.8
  -8   3  -1    48.3     3.3
  -8   3  -2  1626.7     8.9
  -8   3  -3  1204.9    10.8
  -8   3  -4  3018.2    15.6
  -8   3  -5     9.9     6.2
  -8   3  -6   155.3     8.1
  -8   3  -7   636.0    10.0
  -8   3  -8  3476.2    25.8
  -8   3  -9   650.9    13.0
  -8   3 -10   -11.5    15.1
  -8   3 -11   187.3    21.3
  -8   3 -12   427.3    27.1
  -8   3 -13    45.9    38.4
  -8   3 -14   299.6    64.0
  -8   3 -15   -91.4   106.3
  -8   3 -16   947.8   191.8
  -8   4  -1  3735.4    16.8
  -8   4  -3  1078.0     8.7
  -8   4  -5   202.2     7.5
  -8   4  -7   330.3    10.0
  -8   4  -9     5.9    11.6
  -8   4 -11    69.2    20.4
  -8   4 -13    47.6    46.0
  -8   4 -15   -23.1   120.3
  -8   5   0     6.2     5.0
  -8   5  -1   823.8     7.1
  -8   5  -2   542.3     5.8
  -8   5  -3  5821.9    30.4
  -8   5  -4  1534.0    12.4
  -8   5  -5  2233.2    20.0
  -8   5  -6   907.1    12.6
  -8   5  -7  1618.1    15.5
  -8   5  -8  3684.6    28.0
  -8   5  -9    61.1    12.5
  -8   5 -10   544.6    17.9
  -8   5 -11   612.9    22.8
  -8   5 -12  1252.6    33.9
  -8   5 -13  1097.6    48.1
  -8   5 -14  2010.0    75.3
  -8   5 -15   989.6   113.5
  -8   5 -16   397.0   191.9
  -8   6  -1   467.0     5.0
  -8   6  -3  2828.3    18.0
  -8   6  -5  2841.2    20.3
  -8   6  -7   196.8    10.3
  -8   6  -9  1907.4    19.7
  -8   6 -11   677.5    25.1
  -8   6 -13   627.1    51.7
  -8   6 -15  3202.3   132.5
  -8   7   0     7.9     6.2
  -8   7  -1    44.6     4.1
  -8   7  -2  2177.0    12.9
  -8   7  -3    36.4     6.3
  -8   7  -4  7321.2    41.5
  -8   7  -5   791.5    10.9
  -8   7  -6  2969.3    23.3
  -8   7  -7   121.7    11.0
  -8   7  -8   107.3    12.5
  -8   7  -9    12.1    14.6
  -8   7 -10  1775.1    27.0
  -8   7 -11    17.0    25.8
  -8   7 -12  1298.7    38.7
  -8   7 -13   151.7    49.3
  -8   7 -14   473.7    85.2
  -8   7 -15   330.3   138.3
  -8   7 -16   609.9   214.2
  -8   8  -1  6125.1    26.4
  -8   8  -3  1703.4    13.7
  -8   8  -5   106.3     8.8
  -8   8  -7   350.9    11.8
  -8   8  -9   143.1    15.5
  -8   8 -11   130.0    35.4
  -8   8 -13    -0.9    53.8
  -8   8 -15   561.7   133.3
  -9  -8   0   -15.0     8.4
  -9  -8  -1  1636.7    10.6
  -9  -8  -2   150.4     6.2
  -9  -8  -3  3661.0    20.0
  -9  -8  -4  3401.3    22.9
  -9  -8  -5  2447.2    19.2
  -9  -8  -6  1061.8    13.5
  -9  -8  -7  1166.9    14.5
  -9  -8  -8   680.6    15.7
  -9  -8  -9   864.8    21.5
  -9  -8 -10  1853.5    30.1
  -9  -8 -11   722.4    31.2
  -9  -8 -12  3526.4    62.3
  -9  -8 -13  3927.9    85.7
  -9  -8 -14   908.4    93.0
  -9  -8 -15  3713.6   192.9
  -9  -8 -16   -71.9   303.1
  -9  -7   0  3417.5    29.7
  -9  -7  -1  2666.1    13.5
  -9  -7  -2   279.0     6.0
  -9  -7  -3   631.1     8.5
  -9  -7  -4  1829.1    15.2
  -9  -7  -5  1320.1    13.8
  -9  -7  -6  2087.4    18.3
  -9  -7  -7  2571.9    22.0
  -9  -7  -8    96.3    13.0
  -9  -7  -9  1901.3    25.5
  -9  -7 -10   642.1    22.3
  -9  -7 -11  2950.0    39.8
  -9  -7 -12   407.6    41.6
  -9  -7 -13  3331.6    82.3
  -9  -7 -14    48.1    92.4
  -9  -7 -15  1646.5   146.3
  -9  -6  -1  1263.0     9.6
  -9  -6  -2   154.1     5.4
  -9  -6  -4  1157.4    11.5
  -9  -6  -5  1781.9    15.4
  -9  -6  -7   973.1    12.7
  -9  -6  -8  5730.1    32.2
  -9  -6 -10   -25.9    19.6
  -9  -6 -11   604.1    28.4
  -9  -6 -13    -3.9    51.8
  -9  -6 -14   943.3    82.8
  -9  -6 -16   835.7   230.4
  -9  -5   0  3527.2    39.9
  -9  -5  -1   195.7     5.0
  -9  -5  -2   168.6     4.8
  -9  -5  -3    59.3     5.4
  -9  -5  -4   753.5     8.7
  -9  -5  -5  7153.2    40.9
  -9  -5  -6   121.8     9.8
  -9  -5  -7   311.6     9.9
  -9  -5  -8   316.9    11.7
  -9  -5  -9   597.6    16.6
  -9  -5 -10   533.6    19.7
  -9  -5 -11  6300.6    55.7
  -9  -5 -12   810.1    36.1
  -9  -5 -13   139.7    50.5
  -9  -5 -14   758.0    70.9
  -9  -5 -15  1236.6   127.3
  -9  -5 -16   -82.4   250.6
  -9  -4   0     8.0     7.1
  -9  -4  -1    97.3     4.4
  -9  -4  -2  1135.8     8.4
  -9  -4  -3   797.7     8.2
  -9  -4  -4  2391.7    15.5
  -9  -4  -5   723.5     8.9
  -9  -4  -6   184.6     8.7
  -9  -4  -7  4804.9    28.1
  -9  -4  -8   188.5    10.8
  -9  -4  -9   154.2    14.5
  -9  -4 -10   316.8    17.3
  -9  -4 -11  1423.3    29.1
  -9  -4 -12 11761.8   115.5
  -9  -4 -13  -172.4    50.8
  -9  -4 -14    53.2    72.1
  -9  -4 -15   -10.8   108.4
  -9  -4 -16   193.1   214.2
  -9  -3  -1   647.5     6.2
  -9  -3  -2    48.3     4.5
  -9  -3  -4  1091.9    10.1
  -9  -3  -5  2792.5    17.0
  -9  -3  -7   773.1    10.8
  -9  -3  -8  3063.3    21.4
  -9  -3 -10  1293.7    21.3
  -9  -3 -11  2040.0    28.4
  -9  -3 -13  3472.9    65.6
  -9  -3 -14  1269.0    70.9
  -9  -3 -16  1396.5   193.6
  -9  -2   0     1.7     5.4
  -9  -2  -1  1174.4     8.5
  -9  -2  -2    53.4     4.4
  -9  -2  -3  1475.8    11.7
  -9  -2  -4  1866.2    13.0
  -9  -2  -5   134.1     6.5
  -9  -2  -6    94.7     6.6
  -9  -2  -7   123.0     8.2
  -9  -2  -8   466.1    10.2
  -9  -2  -9   133.6    12.0
  -9  -2 -10  7201.3    44.8
  -9  -2 -11   222.2    21.1
  -9  -2 -12   125.2    28.8
  -9  -2 -13   347.2    46.0
  -9  -2 -14  4762.0    99.8
  -9  -2 -15   350.0   148.4
  -9  -1   0   545.1     8.0
  -9  -1  -1  2354.2    13.1
  -9  -1  -2   204.6     5.5
  -9  -1  -3  1409.4    11.4
  -9  -1  -4  1509.4    12.9
  -9  -1  -5  4701.9    21.8
  -9  -1  -6  2724.1    16.3
  -9  -1  -7  1262.8    10.8
  -9  -1  -8    48.4     8.7
  -9  -1  -9   652.7    12.3
  -9  -1 -10    80.8    16.0
  -9  -1 -11  2698.2    36.1
  -9  -1 -12   183.4    35.8
  -9  -1 -13   -61.9    49.9
  -9  -1 -14   657.3    81.7
  -9  -1 -15   793.2   138.2
  -9   0  -1   708.2     6.3
  -9   0  -2  4239.8    26.6
  -9   0  -4  2000.4    15.2
  -9   0  -5  1468.9    12.2
  -9   0  -7   239.9     8.0
  -9   0  -8   213.8    10.6
  -9   0 -10  3157.3    35.4
  -9   0 -11  1475.2    46.3
  -9   0 -13   799.8    62.7
  -9   1   0  1505.4    16.9
  -9   1  -1   488.4     5.0
  -9   1  -2  1598.9    12.8
  -9   1  -3   828.1     9.2
  -9   1  -4  1162.8    10.6
  -9   1  -5   673.0     8.0
  -9   1  -6    47.1     6.4
  -9   1  -7  1372.8    11.7
  -9   1  -8    86.4     9.1
  -9   1  -9   778.8    13.1
  -9   1 -10   -12.9    15.8
  -9   1 -11  5252.1    46.0
  -9   1 -12   -40.8    33.0
  -9   1 -13  3084.8    69.4
  -9   1 -14  -133.1    91.4
  -9   1 -15   780.6   156.4
  -9   2   0    14.8     4.9
  -9   2  -1  2235.3    13.5
  -9   2  -2 13757.6   116.1
  -9   2  -3  3651.2    18.1
  -9   2  -4   718.8     8.6
  -9   2  -5   322.7     7.0
  -9   2  -6  4212.8    22.1
  -9   2  -7  1504.4    13.6
  -9   2  -8   423.7    10.1
  -9   2  -9    70.9    11.9
  -9   2 -10   715.9    17.4
  -9   2 -11   232.4    20.7
  -9   2 -12  3149.1    45.6
  -9   2 -13   555.2    46.2
  -9   2 -14   184.7    65.6
  -9   2 -15   792.2   107.7
  -9   2 -16  1930.0   213.4
  -9   3  -1  1257.0     9.4
  -9   3  -2  2092.7    13.2
  -9   3  -4  5507.2    25.5
  -9   3  -5   976.9    10.4
  -9   3  -7   977.5    11.3
  -9   3  -8   430.5    10.8
  -9   3 -10  2272.6    25.5
  -9   3 -11   -24.4    23.2
  -9   3 -13   139.5    45.6
  -9   3 -14  1137.3    68.4
  -9   3 -16   601.5   207.7
  -9   4   0    22.2     7.7
  -9   4  -1   248.0     4.9
  -9   4  -2   609.3     6.5
  -9   4  -3  3283.2    15.8
  -9   4  -4  4567.4    25.7
  -9   4  -5  1758.2    15.8
  -9   4  -6   358.4     9.4
  -9   4  -7  3319.6    21.9
  -9   4  -8    69.6    11.0
  -9   4  -9   232.2    14.9
  -9   4 -10   103.3    17.5
  -9   4 -11    65.2    22.4
  -9   4 -12  4494.7    53.6
  -9   4 -13   554.0    51.8
  -9   4 -14   106.2    71.7
  -9   4 -15  3426.3   152.8
  -9   4 -16   -31.8   203.6
  -9   5   0  1546.3    16.1
  -9   5  -1 11408.1    63.2
  -9   5  -2   233.8     5.1
  -9   5  -3   657.3     7.3
  -9   5  -4   222.8     7.0
  -9   5  -5  2901.8    21.1
  -9   5  -6    10.2     9.3
  -9   5  -7  4597.8    30.5
  -9   5  -8    17.2    11.7
  -9   5  -9  1848.2    21.8
  -9   5 -10   295.7    19.0
  -9   5 -11   902.8    25.9
  -9   5 -12   550.5    34.5
  -9   5 -13  3207.2    62.1
  -9   5 -14   277.6    76.3
  -9   5 -15  2966.9   134.9
  -9   5 -16    69.9   209.6
  -9   6  -1  1845.8    11.1
  -9   6  -2  6031.5    28.4
  -9   6  -4 11398.6    69.7
  -9   6  -5   482.4     9.6
  -9   6  -7    39.8    10.0
  -9   6  -8   466.5    12.6
  -9   6 -10   329.4    19.5
  -9   6 -11   584.1    28.0
  -9   6 -13   350.2    62.6
  -9   6 -14  6905.2   122.2
  -9   6 -16  -383.3   222.7
  -9   7   0   575.5     9.2
  -9   7  -1  8009.4    34.6
  -9   7  -2   560.5     7.3
  -9   7  -3  3262.3    22.9
  -9   7  -4   463.3     8.8
  -9   7  -5  7450.7    39.6
  -9   7  -6   187.6     9.7
  -9   7  -7   367.3    12.2
  -9   7  -8   221.2    13.8
  -9   7  -9   526.7    19.2
  -9   7 -10    59.2    19.9
  -9   7 -11  2639.9    38.3
  -9   7 -12    94.4    40.2
  -9   7 -13    91.7    58.2
  -9   7 -14   476.0    94.1
  -9   7 -15   240.8   156.6
  -9   7 -16  2080.6   247.7
  -9   8   0    14.3     7.2
  -9   8  -1   244.9     5.7
  -9   8  -2  2179.1    14.4
  -9   8  -3    96.8     7.1
  -9   8  -4  2055.4    16.8
  -9   8  -5   181.6     9.1
  -9   8  -6    90.5    10.0
  -9   8  -7  6245.4    33.7
  -9   8  -8   445.2    14.8
  -9   8  -9   356.2    19.8
  -9   8 -10   232.6    23.5
  -9   8 -11  1332.0    38.1
  -9   8 -12  4429.4    68.0
  -9   8 -13   299.4    60.3
  -9   8 -14   -65.8    91.3
  -9   8 -15    11.3   149.1
  -9   8 -16   212.8   255.5
  -9   9  -1  1869.1    12.5
  -9   9  -2   691.3     8.7
  -9   9  -4   633.6     9.6
  -9   9  -5   155.4     8.9
  -9   9  -7  1529.2    17.9
  -9   9  -8   433.1    17.3
  -9   9 -10  1608.9    30.2
  -9   9 -11   897.3    40.9
  -9   9 -13  1067.7    75.2
  -9   9 -14  4394.6   129.2
 -10  -9   0     3.2    11.7
 -10  -9  -1   606.6     8.8
 -10  -9  -2  2552.3    16.8
 -10  -9  -3  5591.3    26.9
 -10  -9  -4    51.3     7.9
 -10  -9  -5     1.9     9.4
 -10  -9  -6   588.0    12.9
 -10  -9  -7  2891.7    26.9
 -10  -9  -8   333.6    16.9
 -10  -9  -9  1349.0    30.9
 -10  -9 -10   661.0    35.8
 -10  -9 -11   683.6    41.0
 -10  -9 -12   130.0    55.3
 -10  -9 -13  -217.2    75.1
 -10  -9 -14  -335.2   126.2
 -10  -9 -15  -112.7   182.3
 -10  -9 -16   -69.8   317.7
 -10  -8  -1    15.4     6.2
 -10  -8  -3  1692.7    13.0
 -10  -8  -5  1193.7    13.0
 -10  -8  -7   736.2    14.4
 -10  -8  -9    -2.5    20.1
 -10  -8 -11   848.5    35.2
 -10  -8 -13   127.7    68.6
 -10  -8 -15   602.2   220.3
 -10  -7   0    37.2     9.5
 -10  -7  -1  3236.6    16.1
 -10  -7  -2  2459.9    15.0
 -10  -7  -3   159.9     6.8
 -10  -7  -4  1433.8    12.5
 -10  -7  -5   587.6     9.7
 -10  -7  -6   238.8     9.9
 -10  -7  -7   104.5    12.6
 -10  -7  -8   105.5    14.1
 -10  -7  -9  1943.8    24.3
 -10  -7 -10  1033.6    29.5
 -10  -7 -11  1275.7    34.5
 -10  -7 -12  1932.2    54.6
 -10  -7 -13   418.2    70.0
 -10  -7 -14    51.6   106.6
 -10  -7 -15   -44.7   173.2
 -10  -7 -16  -166.2   274.2
 -10  -6  -1   147.2     5.8
 -10  -6  -3   532.1     7.5
 -10  -6  -5    -1.1     8.6
 -10  -6  -7   664.4    12.2
 -10  -6  -9  1235.2    20.7
 -10  -6 -11   290.5    33.3
 -10  -6 -13   751.0    61.1
 -10  -6 -15  1557.1   150.4
 -10  -5  -1   690.2     8.0
 -10  -5  -2   589.0     6.7
 -10  -5  -3  2718.8    14.0
 -10  -5  -4   251.7     7.2
 -10  -5  -6  1088.1    12.6
 -10  -5  -7   115.7    10.5
 -10  -5  -8   883.6    15.1
 -10  -5  -9   864.3    17.4
 -10  -5 -11  1164.9    32.3
 -10  -5 -12   801.2    39.6
 -10  -5 -13  2039.2    64.0
 -10  -5 -14  -147.2    94.9
 -10  -5 -16   -69.1   239.7
 -10  -4  -1  2178.3    13.3
 -10  -4  -3   746.6     8.6
 -10  -4  -5  2178.9    15.7
 -10  -4  -7    34.7     9.7
 -10  -4  -9    40.6    14.4
 -10  -4 -11   -41.2    27.2
 -10  -4 -13  1050.5    62.0
 -10  -4 -15    34.7   135.7
 -10  -3   0    12.2     7.5
 -10  -3  -1  4194.8    21.1
 -10  -3  -2  2002.9    13.0
 -10  -3  -3    62.9     5.8
 -10  -3  -4   871.1     8.7
 -10  -3  -5   197.7     7.1
 -10  -3  -6   467.0     9.2
 -10  -3  -7   812.5    10.8
 -10  -3  -8     9.5    11.0
 -10  -3  -9   297.8    14.7
 -10  -3 -10  5647.5    48.7
 -10  -3 -11   568.9    26.3
 -10  -3 -12   114.1    33.6
 -10  -3 -13    30.0    52.6
 -10  -3 -14  1635.9    86.4
 -10  -3 -15   -36.3   133.1
 -10  -3 -16    18.9   217.1
 -10  -2  -1   119.0     5.0
 -10  -2  -3   968.9     9.2
 -10  -2  -5    98.5     6.9
 -10  -2  -7   483.3     9.1
 -10  -2  -9   147.2    13.3
 -10  -2 -11   -25.9    24.5
 -10  -2 -13   126.5    52.0
 -10  -2 -15  -287.2   150.1
 -10  -1   0     0.8     9.5
 -10  -1  -1  2301.5    15.8
 -10  -1  -2   682.0     7.7
 -10  -1  -3  2815.4    15.1
 -10  -1  -4  5873.3    26.0
 -10  -1  -5  1513.5    12.2
 -10  -1  -6   300.6     7.5
 -10  -1  -7   185.3     7.4
 -10  -1  -8  1237.3    12.5
 -10  -1  -9   333.5    13.1
 -10  -1 -10   656.1    18.2
 -10  -1 -11    37.2    24.4
 -10  -1 -12    51.6    39.8
 -10  -1 -13   511.1    61.9
 -10  -1 -14    82.2    89.3
 -10  -1 -15   740.0   148.7
 -10   0  -1  1286.7    10.9
 -10   0  -3  5674.7    34.8
 -10   0  -7   291.9     9.1
 -10   0  -9  1234.5    20.9
 -10   0 -11  1221.8    57.9
 -10   1   0    -9.5     8.9
 -10   1  -1   784.5     8.3
 -10   1  -2    83.8     5.1
 -10   1  -3  3514.4    18.5
 -10   1  -4   500.5     7.4
 -10   1  -5   104.8     6.7
 -10   1  -6    -0.0     6.8
 -10   1  -7    26.8     7.6
 -10   1  -8   704.8    11.4
 -10   1  -9   792.1    15.6
 -10   1 -10   516.1    20.2
 -10   1 -11   266.0    26.1
 -10   1 -12  3860.8    52.5
 -10   1 -13    97.7    55.6
 -10   1 -14    19.7    95.4
 -10   1 -15  -551.0   176.5
 -10   2  -1   313.9     5.9
 -10   2  -3     3.0     5.3
 -10   2  -5   627.9     7.8
 -10   2  -7    36.9     8.9
 -10   2  -9    11.5    12.6
 -10   2 -11    -5.8    24.0
 -10   2 -13   -60.1    47.7
 -10   2 -15    24.7   116.6
 -10   3   0   -28.4     7.2
 -10   3  -1  1639.0    12.8
 -10   3  -2  2065.2    12.7
 -10   3  -3  7282.9    30.7
 -10   3  -4    69.9     6.0
 -10   3  -5   181.5     7.3
 -10   3  -6  7517.6    37.5
 -10   3  -7  1756.1    15.3
 -10   3  -8   410.6    12.2
 -10   3  -9  3116.9    26.6
 -10   3 -10   148.9    19.1
 -10   3 -11    20.2    26.2
 -10   3 -12   169.3    32.3
 -10   3 -13   821.9    53.8
 -10   3 -14   318.0    78.8
 -10   3 -15   -67.9   117.9
 -10   3 -16   -83.7   205.1
 -10   4  -1   220.3     6.1
 -10   4  -3    50.9     5.5
 -10   4  -5    77.6     7.8
 -10   4  -7   103.5    10.1
 -10   4  -9    71.3    14.5
 -10   4 -11    -0.1    25.1
 -10   4 -13   420.7    58.3
 -10   4 -15  -294.5   133.4
 -10   5  -1  1042.3     9.4
 -10   5  -2  1482.0    11.0
 -10   5  -3    55.4     5.9
 -10   5  -4   149.0     7.1
 -10   5  -6   280.6     9.6
 -10   5  -7   250.9    11.3
 -10   5  -8   117.9    13.0
 -10   5  -9   137.2    16.0
 -10   5 -11   194.4    28.3
 -10   5 -12  2175.3    46.2
 -10   5 -13   154.6    54.4
 -10   5 -14    85.9    83.5
 -10   5 -16     4.1   235.0
 -10   6  -1  1483.6    12.6
 -10   6  -3   820.1     8.7
 -10   6  -5  1380.8    13.9
 -10   6  -7   -13.7    11.1
 -10   6  -9   755.3    18.4
 -10   6 -11  2642.2    41.7
 -10   6 -13   -24.2    57.3
 -10   6 -15  1019.1   146.0
 -10   7   0    34.7     9.4
 -10   7  -1   288.9     6.6
 -10   7  -2  5217.8    21.4
 -10   7  -3   265.3     7.2
 -10   7  -4   859.2    10.4
 -10   7  -5    47.8     8.8
 -10   7  -6    10.2     9.6
 -10   7  -7  1073.7    15.0
 -10   7  -8  6842.0    42.4
 -10   7  -9    52.4    20.0
 -10   7 -10  1207.1    28.1
 -10   7 -11  1107.9    33.3
 -10   7 -12    52.3    42.2
 -10   7 -13   274.0    67.9
 -10   7 -14   -33.5   117.2
 -10   7 -15  -120.8   174.1
 -10   7 -16  1581.5   273.3
 -10   8  -1  2805.4    16.4
 -10   8  -3   714.0     9.1
 -10   8  -5   101.6     9.0
 -10   8  -7    75.3    12.8
 -10   8  -9    39.2    20.3
 -10   8 -11  1034.8    38.5
 -10   8 -13   275.8    73.0
 -10   8 -15   131.6   164.0
 -10   9   0    39.9    10.8
 -10   9  -1    24.2     6.8
 -10   9  -2   242.7     7.0
 -10   9  -3   199.2     7.3
 -10   9  -4   615.0    10.1
 -10   9  -5   629.6    11.6
 -10   9  -6   156.4    11.8
 -10   9  -7    28.1    13.4
 -10   9  -8    82.0    18.1
 -10   9  -9   237.0    22.5
 -10   9 -10  1987.5    36.7
 -10   9 -11   750.9    41.1
 -10   9 -12    -7.4    56.5
 -10   9 -13  -234.5    89.6
 -10   9 -14  1453.1   130.8
 -10   9 -15    -8.6   188.0
 -10   9 -16   957.6   329.1
 -10  10  -1   211.6     9.4
 -10  10  -3   502.3     9.0
 -10  10  -7   196.8    15.3
 -10  10  -9   159.5    27.1
 -10  10 -11   672.7    43.6
 -10  10 -13   979.0   116.1
 -11 -10   0    13.9    19.0
 -11 -10  -1   786.7    13.5
 -11 -10  -2    31.6     9.3
 -11 -10  -3  1333.1    13.9
 -11 -10  -4  3184.9    23.0
 -11 -10  -5  2633.0    23.2
 -11 -10  -6  1582.3    19.7
 -11 -10  -7   192.6    18.3
 -11 -10  -8   263.8    22.4
 -11 -10  -9  1058.5    29.7
 -11 -10 -10  2218.0    67.0
 -11 -10 -11   389.0    66.1
 -11 -10 -12   492.6    73.0
 -11 -10 -13    33.9   106.3
 -11 -10 -14   107.3   147.3
 -11 -10 -15  1044.7   276.5
 -11  -9   0   996.4    23.1
 -11  -9  -1  1283.5    13.0
 -11  -9  -2   135.2     8.0
 -11  -9  -3  1621.0    14.2
 -11  -9  -4    25.4     8.8
 -11  -9  -5  8539.6    44.7
 -11  -9  -6    44.1    12.4
 -11  -9  -7    20.4    15.7
 -11  -9  -8   120.3    20.1
 -11  -9  -9   767.0    26.2
 -11  -9 -10   125.3    35.7
 -11  -9 -11   223.8    50.1
 -11  -9 -12  -166.7    57.4
 -11  -9 -13   728.2    86.9
 -11  -9 -14   155.3   132.8
 -11  -9 -15  1386.8   249.9
 -11  -8   0    30.4     9.9
 -11  -8  -1   443.5     8.0
 -11  -8  -2  1760.7    14.3
 -11  -8  -3    16.1     8.1
 -11  -8  -4   306.4     8.9
 -11  -8  -5  1209.8    13.1
 -11  -8  -6  2955.9    22.4
 -11  -8  -7    -0.5    13.6
 -11  -8  -8   547.9    22.2
 -11  -8  -9     1.9    22.5
 -11  -8 -10   585.0    29.7
 -11  -8 -11  1219.6    57.6
 -11  -8 -12    38.2    53.0
 -11  -8 -13  1209.9    82.1
 -11  -8 -14   692.6   136.6
 -11  -8 -15   -56.7   222.6
 -11  -7   0   564.4    12.3
 -11  -7  -1    52.3     6.4
 -11  -7  -2  7156.8    35.6
 -11  -7  -3  1034.5    10.9
 -11  -7  -4   639.6     9.1
 -11  -7  -5   430.4     9.7
 -11  -7  -6   807.8    12.6
 -11  -7  -7  2758.1    29.2
 -11  -7  -8    18.7    16.2
 -11  -7  -9   409.5    20.8
 -11  -7 -10    36.5    26.3
 -11  -7 -11  1593.3    47.2
 -11  -7 -12   -60.7    58.9
 -11  -7 -13   479.5    78.8
 -11  -7 -14   135.3   123.5
 -11  -7 -15   284.7   182.0
 -11  -7 -16  -406.7   304.8
 -11  -6   0    97.0    11.8
 -11  -6  -1   745.4     8.2
 -11  -6  -2   559.6     7.9
 -11  -6  -3    14.2     7.4
 -11  -6  -4  8496.9    36.5
 -11  -6  -5   235.5     9.1
 -11  -6  -6   283.3    12.8
 -11  -6  -7  1121.6    15.0
 -11  -6  -8   759.5    16.5
 -11  -6  -9  1742.0    27.2
 -11  -6 -10   565.2    26.8
 -11  -6 -11   707.2    46.2
 -11  -6 -12   -73.7    49.7
 -11  -6 -13   -67.5    67.2
 -11  -6 -14   198.8   103.5
 -11  -6 -15  -108.6   170.4
 -11  -6 -16  1929.5   303.4
 -11  -5   0  2677.3    33.9
 -11  -5  -1  3012.6    17.5
 -11  -5  -2  1104.1    10.3
 -11  -5  -3 10731.6    53.5
 -11  -5  -4   265.4     7.2
 -11  -5  -5  1303.0    12.4
 -11  -5  -6   807.6    11.1
 -11  -5  -7  6067.7    35.0
 -11  -5  -8   575.4    15.2
 -11  -5  -9    -1.2    18.2
 -11  -5 -10   450.7    23.9
 -11  -5 -11   794.5    35.4
 -11  -5 -12   -36.7    43.5
 -11  -5 -13    -6.2    69.5
 -11  -5 -14     9.5   110.1
 -11  -5 -15   226.7   195.1
 -11  -4   0    28.5     8.8
 -11  -4  -1    74.7     6.9
 -11  -4  -2   437.5     7.1
 -11  -4  -3    38.7     5.9
 -11  -4  -4  5167.0    26.9
 -11  -4  -5  2229.4    15.7
 -11  -4  -6  1808.1    14.6
 -11  -4  -7   315.6    11.0
 -11  -4  -8    72.0    12.8
 -11  -4  -9   120.9    16.7
 -11  -4 -10   188.0    23.0
 -11  -4 -12   326.9    45.3
 -11  -4 -13   -65.2    60.9
 -11  -4 -14   571.0   106.7
 -11  -4 -15   862.6   155.8
 -11  -4 -16  -160.9   279.7
 -11  -3   0  2529.5    34.4
 -11  -3  -1  8917.5    47.9
 -11  -3  -2    79.0     6.2
 -11  -3  -3    61.2     6.6
 -11  -3  -4   298.5     6.7
 -11  -3  -5   778.2     8.5
 -11  -3  -6   163.4     8.0
 -11  -3  -7  5359.7    30.8
 -11  -3  -8    74.5    12.7
 -11  -3  -9   935.2    17.9
 -11  -3 -10   491.2    20.8
 -11  -3 -11   257.8    29.4
 -11  -3 -12   310.3    41.1
 -11  -3 -13  1860.9    62.0
 -11  -3 -14   -69.8    84.7
 -11  -3 -15  1143.7   154.4
 -11  -3 -16   373.4   268.5
 -11  -2   0    23.9     9.8
 -11  -2  -1   932.8     9.8
 -11  -2  -2  5268.9    30.5
 -11  -2  -3  9253.9    43.3
 -11  -2  -4  1802.1    13.3
 -11  -2  -5   713.7     8.3
 -11  -2  -6  3039.0    16.3
 -11  -2  -7  2783.3    18.7
 -11  -2  -8    46.4    10.7
 -11  -2  -9   695.2    16.6
 -11  -2 -10     4.8    18.9
 -11  -2 -11  1865.2    38.6
 -11  -2 -12  2790.5    56.6
 -11  -2 -13   212.0    59.8
 -11  -2 -14   284.7    93.3
 -11  -2 -15   340.1   179.1
 -11  -2 -16 -1010.3   311.9
 -11  -1   0  2297.5    25.4
 -11  -1  -1  4263.0    25.5
 -11  -1  -2   383.2     7.1
 -11  -1  -3  1071.5    10.6
 -11  -1  -4  2062.6    13.4
 -11  -1  -5 11823.6    53.9
 -11  -1  -6   163.9     7.1
 -11  -1  -7   989.5    10.3
 -11  -1  -8    -3.8    10.1
 -11  -1  -9  2013.2    20.4
 -11  -1 -10  1843.6    25.7
 -11  -1 -11   148.5    26.6
 -11  -1 -12   369.0    42.6
 -11  -1 -13    87.3    69.5
 -11  -1 -14   743.7    99.6
 -11  -1 -15  1291.1   169.1
 -11   0  -1   202.8     6.4
 -11   0  -2  6258.5    42.5
 -11   0  -3   704.9     8.2
 -11   0  -4    25.7     6.3
 -11   0  -5   109.1     6.7
 -11   0  -6  1278.2    10.5
 -11   0  -7  8169.8    60.4
 -11   0  -8  2424.2    22.0
 -11   0  -9   413.7    18.3
 -11   0 -10  3365.6    52.7
 -11   0 -12   170.7   101.1
 -11   0 -13   385.4    69.2
 -11   1   0  1681.9    27.5
 -11   1  -1  2690.1    17.5
 -11   1  -2    42.4     6.1
 -11   1  -3   503.6     7.2
 -11   1  -4     7.8     6.2
 -11   1  -5    31.8     6.8
 -11   1  -6    59.3     7.0
 -11   1  -7  1121.0    11.2
 -11   1  -8   175.4    10.6
 -11   1  -9   622.3    16.3
 -11   1 -10    66.4    20.6
 -11   1 -11  4664.3    53.9
 -11   1 -12    71.2    42.8
 -11   1 -13  1167.7    63.3
 -11   1 -14   699.0   112.2
 -11   1 -15   -79.1   192.3
 -11   2   0    32.2     9.0
 -11   2  -1  5991.5    37.5
 -11   2  -2  2097.2    16.6
 -11   2  -3  1543.7    11.7
 -11   2  -4  2124.3    13.9
 -11   2  -5   172.6     7.1
 -11   2  -6  1173.1    10.8
 -11   2  -7   117.2     9.4
 -11   2  -8    83.9    11.3
 -11   2  -9   940.7    17.3
 -11   2 -10   213.1    19.6
 -11   2 -11   963.9    30.1
 -11   2 -12  1771.5    45.6
 -11   2 -13   309.5    54.1
 -11   2 -14    13.0    83.0
 -11   2 -15   -38.9   144.2
 -11   2 -16    39.5   255.5
 -11   3   0  2299.5    26.8
 -11   3  -1  5855.3    33.6
 -11   3  -2   148.1     5.9
 -11   3  -3 12107.0    71.0
 -11   3  -4   903.7     8.7
 -11   3  -5  3957.1    19.7
 -11   3  -6  3295.5    20.3
 -11   3  -7  1348.2    14.7
 -11   3  -8   284.2    13.0
 -11   3  -9    47.6    16.5
 -11   3 -10  1062.9    24.6
 -11   3 -11  1217.4    34.7
 -11   3 -12   508.9    40.6
 -11   3 -13   252.8    54.2
 -11   3 -14    40.7    90.8
 -11   3 -15   -44.1   146.9
 -11   3 -16   440.4   264.5
 -11   4   0   -14.9    10.0
 -11   4  -1  1233.8    11.5
 -11   4  -2    93.0     6.0
 -11   4  -3   335.7     6.1
 -11   4  -4  2889.0    19.2
 -11   4  -5  4915.1    23.2
 -11   4  -6  1393.5    13.5
 -11   4  -7    16.0    10.5
 -11   4  -8    56.8    12.8
 -11   4  -9  2548.9    28.0
 -11   4 -10    73.0    21.4
 -11   4 -11   389.8    50.8
 -11   4 -12   186.3    44.9
 -11   4 -13  2702.1    77.0
 -11   4 -14   578.1   104.2
 -11   4 -15   670.3   177.8
 -11   4 -16    28.6   259.2
 -11   5   0  7598.3    92.6
 -11   5  -1   243.9     6.6
 -11   5  -2  2272.7    14.8
 -11   5  -3   713.5     8.2
 -11   5  -4    44.5     7.3
 -11   5  -5    66.6     8.3
 -11   5  -6   242.6    10.0
 -11   5  -7   502.2    12.2
 -11   5  -8   870.9    17.3
 -11   5  -9  2315.1    28.7
 -11   5 -10    49.5    22.5
 -11   5 -11  4749.9    61.5
 -11   5 -12    69.9    45.0
 -11   5 -13  2644.3    72.9
 -11   5 -14   199.6    94.8
 -11   5 -15  1184.3   158.4
 -11   5 -16   831.0   313.0
 -11   6   0    47.8    10.9
 -11   6  -1  2891.0    16.1
 -11   6  -2   164.2     6.9
 -11   6  -3  3121.5    17.4
 -11   6  -4  7714.9    39.1
 -11   6  -5   372.7     9.6
 -11   6  -6    52.2    11.3
 -11   6  -7   551.5    13.2
 -11   6  -8    70.8    15.0
 -11   6  -9    19.7    18.3
 -11   6 -10   453.2    27.0
 -11   6 -11   595.0    41.1
 -11   6 -12    -8.5    48.4
 -11   6 -13   230.0    66.5
 -11   6 -14  1525.2   105.1
 -11   6 -15  -172.5   166.6
 -11   6 -16  1147.2   283.6
 -11   7   0    71.3     8.3
 -11   7  -1  2877.4    16.7
 -11   7  -2  1215.8    12.5
 -11   7  -3   170.8     7.4
 -11   7  -4  3640.6    24.8
 -11   7  -5  1864.5    16.3
 -11   7  -6    -2.1    11.4
 -11   7  -7  1229.3    18.0
 -11   7  -8    38.1    17.2
 -11   7  -9   763.3    22.1
 -11   7 -10   957.9    28.8
 -11   7 -12  1184.3    55.7
 -11   7 -13  -127.4    77.8
 -11   7 -14   289.4   120.6
 -11   7 -15  1272.2   200.9
 -11   8   0    51.9    14.2
 -11   8  -1  1621.5    13.3
 -11   8  -2   304.0     8.3
 -11   8  -3   685.8     9.3
 -11   8  -4   195.3     9.4
 -11   8  -5  3001.1    21.2
 -11   8  -6  1280.6    16.4
 -11   8  -7  4389.3    33.4
 -11   8  -8   354.4    17.5
 -11   8  -9    -6.3    22.8
 -11   8 -10    -2.0    32.3
 -11   8 -11   960.1    46.6
 -11   8 -12   703.9    53.1
 -11   8 -13   262.9    77.1
 -11   8 -14   -43.8   116.4
 -11   8 -15  2479.1   259.6
 -11   9   0  6638.2    87.8
 -11   9  -1    61.9     8.6
 -11   9  -2   749.2    10.9
 -11   9  -3   233.5     9.0
 -11   9  -4    26.8     9.3
 -11   9  -5  4168.3    26.0
 -11   9  -6   392.8    13.6
 -11   9  -7  3729.0    35.2
 -11   9  -8    42.6    20.2
 -11   9  -9  1498.3    29.1
 -11   9 -10    -5.1    33.4
 -11   9 -11  2422.6    54.3
 -11   9 -12   584.2    65.2
 -11   9 -13  4473.5   110.5
 -11   9 -14   -47.4   142.2
 -11   9 -15   579.6   239.6
 -11   9 -16  -621.0   363.4
 -11  10   0    23.5    19.7
 -11  10  -1  1076.3    15.9
 -11  10  -2  1885.0    16.8
 -11  10  -3  7722.6    34.8
 -11  10  -4   289.1    10.6
 -11  10  -5   494.0    13.2
 -11  10  -6   212.3    15.1
 -11  10  -7    89.5    17.1
 -11  10  -8    15.5    22.1
 -11  10  -9    -4.2    30.9
 -11  10 -10   436.5    39.9
 -11  10 -12  5332.4   100.5
 -11  10 -13  1037.2   109.1
 -11  10 -14   -87.4   189.3
 -11  10 -15   602.4   271.1
 -11  11  -1   875.5    17.1
 -11  11  -2   835.0    12.9
 -11  11  -3   598.0    12.3
 -11  11  -4   593.9    12.9
 -11  11  -5  1567.8    20.0
 -11  11  -6   432.7    17.9
 -11  11  -7   362.6    21.1
 -11  11  -8   154.2    24.5
 -11  11  -9   115.7    33.2
 -11  11 -10   438.9    48.3
 -11  11 -12   163.0    76.2
 -11  11 -14  4936.0   266.6
 -12 -11   0   -46.6    32.6
 -12 -11  -1   395.1    17.2
 -12 -11  -2   104.1    13.2
 -12 -11  -3   536.6    13.2
 -12 -11  -4    12.5    13.6
 -12 -11  -5  2152.5    26.1
 -12 -11  -6   274.8    18.9
 -12 -11  -7  3968.4    42.3
 -12 -11  -8   310.5    30.2
 -12 -11  -9   311.2    38.0
 -12 -11 -10  1982.2    54.7
 -12 -11 -12   711.0   120.7
 -12 -11 -13    65.0   138.9
 -12 -11 -14  1417.1   230.4
 -12 -11 -15   435.4   330.8
 -12 -10  -1  2304.0    23.5
 -12 -10  -3  1494.9    16.9
 -12 -10  -5   376.6    14.5
 -12 -10  -7    53.6    20.9
 -12 -10  -9    18.1    31.0
 -12 -10 -11    71.4    66.4
 -12 -10 -13  2201.4   129.7
 -12 -10 -15  -402.8   277.9
 -12  -9  -1  1028.4    12.5
 -12  -9  -2  1086.7    13.9
 -12  -9  -4  1041.5    13.4
 -12  -9  -5  5446.4    32.1
 -12  -9  -7   421.6    18.4
 -12  -9  -8   321.6    23.5
 -12  -9 -10     5.6    38.5
 -12  -9 -11   335.3    53.9
 -12  -9 -13    15.5    98.2
 -12  -9 -14  -258.5   154.2
 -12  -8  -1  2883.1    18.0
 -12  -8  -3   384.8     9.9
 -12  -8  -5    69.5    10.6
 -12  -8  -7   829.3    17.9
 -12  -8  -9   234.6    28.3
 -12  -8 -11   390.3    46.4
 -12  -8 -13   321.2   114.2
 -12  -8 -15   637.5   265.8
 -12  -7   0    28.5    10.3
 -12  -7  -1   654.3     8.6
 -12  -7  -2   952.4    10.7
 -12  -7  -3     9.2     8.6
 -12  -7  -4   251.9     8.7
 -12  -7  -5   428.0    10.8
 -12  -7  -6  1431.1    16.4
 -12  -7  -7  3208.3    32.3
 -12  -7  -8   309.7    18.6
 -12  -7  -9   444.9    25.4
 -12  -7 -10   363.6    30.8
 -12  -7 -11   -82.0    43.9
 -12  -7 -13    37.4   102.7
 -12  -7 -14    -5.6   129.5
 -12  -7 -15   908.3   216.0
 -12  -7 -16   898.9   382.1
 -12  -6  -1   240.6     7.1
 -12  -6  -5   181.6     9.6
 -12  -6  -7   424.4    14.8
 -12  -6 -11  1952.4    44.8
 -12  -6 -13   236.9    78.6
 -12  -5   0    14.3     9.7
 -12  -5  -1    17.1     6.9
 -12  -5  -2  6140.8    28.6
 -12  -5  -3  1701.9    13.5
 -12  -5  -4    44.7     7.4
 -12  -5  -5  1545.6    13.8
 -12  -5  -6   340.4    10.9
 -12  -5  -7   971.1    15.0
 -12  -5  -8  5480.5    38.8
 -12  -5  -9  2531.3    30.3
 -12  -5 -10  3089.5    42.5
 -12  -5 -11  1619.3    41.2
 -12  -5 -12  1058.5    69.8
 -12  -5 -13   642.0    82.8
 -12  -5 -14   -66.3   125.6
 -12  -5 -15  -839.6   220.4
 -12  -4  -1  1217.5    12.7
 -12  -4  -3   311.3     7.5
 -12  -4  -5  2233.1    15.0
 -12  -4  -7   669.6    13.2
 -12  -4  -9  2836.8    32.3
 -12  -4 -11  2679.0    47.9
 -12  -4 -13   -33.9    78.4
 -12  -4 -15  1592.3   186.1
 -12  -3  -1    13.9     7.7
 -12  -3  -2  4064.0    22.2
 -12  -3  -4     0.9     6.6
 -12  -3  -5     5.8     6.8
 -12  -3  -7  2267.8    18.2
 -12  -3  -8  7489.4    41.6
 -12  -3 -10  6734.7    59.1
 -12  -3 -11   481.4    31.8
 -12  -3 -13   -10.2    69.6
 -12  -3 -14   187.1    97.9
 -12  -2  -1  1429.2    12.8
 -12  -2  -3   504.6     8.8
 -12  -2  -5   419.6     7.5
 -12  -2  -7    86.3     9.5
 -12  -2  -9   695.0    18.2
 -12  -2 -11   471.2    33.1
 -12  -2 -13  1311.9    80.6
 -12  -2 -15   369.5   184.7
 -12  -1   0   142.9    15.4
 -12  -1  -1  1443.4    13.6
 -12  -1  -2  2347.3    16.2
 -12  -1  -3  1860.1    13.9
 -12  -1  -4   538.2     8.0
 -12  -1  -5   619.3     7.9
 -12  -1  -6  1766.6    12.9
 -12  -1  -7   396.3     9.5
 -12  -1  -8    34.4    11.1
 -12  -1  -9  2493.5    23.6
 -12  -1 -10   144.4    22.0
 -12  -1 -11  2562.0    40.0
 -12  -1 -12    74.3    45.4
 -12  -1 -13  1767.4    80.5
 -12  -1 -14    28.6   117.3
 -12  -1 -15  -165.0   193.4
 -12   0  -1   925.1    10.2
 -12   0  -5  5419.9    30.4
 -12   0  -7   331.0    13.1
 -12   0 -13   237.2   140.4
 -12   1   0   180.8    17.2
 -12   1  -1  3420.3    24.4
 -12   1  -2   816.5    10.0
 -12   1  -3   117.2     7.0
 -12   1  -4   507.6     7.9
 -12   1  -5  1034.7     9.1
 -12   1  -6  3613.0    18.8
 -12   1  -7   200.5     9.4
 -12   1  -8  5605.9    32.6
 -12   1  -9   146.8    16.4
 -12   1 -10    45.0    23.4
 -12   1 -11   505.5    32.8
 -12   1 -12  2643.5   104.6
 -12   1 -13  1177.1    78.4
 -12   1 -14   390.1   109.8
 -12   1 -15   166.8   225.2
 -12   2  -1   624.2     9.1
 -12   2  -3   285.1     7.0
 -12   2  -5   493.1     7.6
 -12   2  -7     3.2     9.8
 -12   2  -9   564.0    18.4
 -12   2 -11   118.3    30.3
 -12   2 -13  1882.3    74.1
 -12   2 -15     9.2   156.2
 -12   3  -1   932.2    10.6
 -12   3  -2  1902.1    15.2
 -12   3  -4    23.9     6.2
 -12   3  -5  4016.2    19.4
 -12   3  -7   577.1    12.6
 -12   3  -8  1611.3    20.5
 -12   3 -10   119.9    25.5
 -12   3 -11   200.1    35.6
 -12   3 -13   303.2    68.2
 -12   3 -14   433.8    96.3
 -12   3 -16  1100.5   310.0
 -12   4  -1  1467.8    13.1
 -12   4  -3  4880.8    23.4
 -12   4  -5   756.5     9.8
 -12   4  -7   235.4    12.4
 -12   4  -9   530.5    20.6
 -12   4 -11  1046.5    39.0
 -12   4 -13   -33.6    76.4
 -12   4 -15  -124.0   204.2
 -12   5   0    22.7    11.0
 -12   5  -1    75.8     7.5
 -12   5  -2  2188.6    14.6
 -12   5  -3  2415.0    16.4
 -12   5  -4    40.9     7.8
 -12   5  -5   677.9    10.6
 -12   5  -6   577.4    12.0
 -12   5  -7  1116.2    16.5
 -12   5  -8   299.8    17.3
 -12   5  -9   879.9    23.7
 -12   5 -10  5020.8    54.8
 -12   5 -11   176.0    35.4
 -12   5 -12   589.5    51.4
 -12   5 -13   322.6    71.7
 -12   5 -14   108.2   109.6
 -12   5 -15  1062.5   214.3
 -12   6  -1   188.1     6.9
 -12   6  -5   449.7    10.4
 -12   6  -7    55.9    14.2
 -12   6 -11   581.1    41.0
 -12   6 -13   147.1    82.5
 -12   7   0    14.4    10.2
 -12   7  -1   181.4     7.5
 -12   7  -2  2449.3    18.8
 -12   7  -3  2888.2    19.4
 -12   7  -4    81.3     9.4
 -12   7  -5   -16.2    11.0
 -12   7  -6   708.3    14.4
 -12   7  -7   382.9    15.7
 -12   7  -8  2127.8    27.4
 -12   7  -9   353.6    24.5
 -12   7 -10    -4.8    29.8
 -12   7 -11  1045.4    43.2
 -12   7 -12  1210.2    84.0
 -12   7 -13  1697.0    95.9
 -12   7 -14  1039.3   143.7
 -12   7 -15  -139.4   239.5
 -12   8  -1  1595.0    15.2
 -12   8  -3    77.9     9.1
 -12   8  -5   114.9    11.3
 -12   8  -7   496.2    17.1
 -12   8  -9   456.9    27.3
 -12   8 -11  1272.9    47.8
 -12   8 -13   460.9    88.5
 -12   8 -15  1301.9   264.8
 -12   9  -1  2305.5    19.5
 -12   9  -2   598.9    12.1
 -12   9  -4   528.2    11.4
 -12   9  -5    54.4    13.1
 -12   9  -7   301.4    19.3
 -12   9  -8    72.1    22.7
 -12   9 -10  2464.6    49.0
 -12   9 -11  3867.5    78.1
 -12   9 -13  4531.3   125.2
 -12   9 -14   342.5   152.9
 -12  10  -1    38.2    14.4
 -12  10  -3    31.6    10.3
 -12  10  -5   144.5    14.1
 -12  10  -7   -20.9    20.8
 -12  10  -9  1051.1    36.3
 -12  10 -11   738.5    61.0
 -12  10 -13  1630.0   129.8
 -12  10 -15   369.7   282.3
 -12  11   0   107.2    35.1
 -12  11  -1    35.9    21.8
 -12  11  -2  1443.2    19.8
 -12  11  -3   692.5    15.1
 -12  11  -4    21.8    12.5
 -12  11  -5     8.3    16.1
 -12  11  -6   521.3    20.0
 -12  11  -7   979.4    26.9
 -12  11  -8  4140.0    47.4
 -12  11  -9    56.9    38.0
 -12  11 -10   353.7    54.5
 -12  11 -11   795.3    74.0
 -12  11 -13   662.3   129.9
 -12  11 -14   284.3   225.9
 -12  12  -1    21.9    25.5
 -12  12  -5    40.0    18.4
 -12  12  -7    -7.6    27.6
 -12  12 -11   322.5    77.8
 -12  12 -13   340.1   152.4
 -13 -12   0   -25.1    59.7
 -13 -12  -1  1476.2    39.2
 -13 -12  -2   840.7    23.3
 -13 -12  -3  1198.0    22.1
 -13 -12  -4   623.2    21.1
 -13 -12  -5   698.2    23.6
 -13 -12  -6   463.2    26.3
 -13 -12  -7  1321.7    34.8
 -13 -12  -8   998.4    47.5
 -13 -12  -9   747.6    53.8
 -13 -12 -10  2742.1    80.0
 -13 -12 -11   581.3    87.6
 -13 -12 -13   778.9   302.2
 -13 -12 -14   523.3   322.8
 -13 -11   0   145.0    34.4
 -13 -11  -1   570.3    19.7
 -13 -11  -2   139.9    15.3
 -13 -11  -3   198.1    16.4
 -13 -11  -4    40.4    16.2
 -13 -11  -5  5612.6    42.4
 -13 -11  -6   439.8    23.9
 -13 -11  -7   476.5    27.4
 -13 -11  -8    76.0    37.7
 -13 -11  -9  1039.7    48.1
 -13 -11 -10   184.1    54.4
 -13 -11 -12   353.2   132.2
 -13 -11 -14   350.8   265.7
 -13 -10  -1    92.4    13.0
 -13 -10  -2    42.1    13.5
 -13 -10  -3   273.9    14.3
 -13 -10  -4   141.3    13.4
 -13 -10  -5   284.7    16.8
 -13 -10  -6   109.3    20.0
 -13 -10  -7  2040.0    30.4
 -13 -10  -8  1712.4    34.4
 -13 -10  -9   657.8    40.1
 -13 -10 -10  1761.2    58.5
 -13 -10 -11   372.5    71.8
 -13 -10 -12  1844.4   106.6
 -13 -10 -14   330.3   208.4
 -13 -10 -15  -274.8   345.5
 -13  -9   0    65.5    18.4
 -13  -9  -1   614.4    12.2
 -13  -9  -2    71.4    11.4
 -13  -9  -3   174.7    12.6
 -13  -9  -4    50.6    12.1
 -13  -9  -5    12.5    13.3
 -13  -9  -6   958.1    19.3
 -13  -9  -7   332.5    22.2
 -13  -9  -8    44.0    25.4
 -13  -9  -9   134.6    37.1
 -13  -9 -10  -110.6    49.8
 -13  -9 -11   862.3    59.2
 -13  -9 -12   125.7    82.7
 -13  -9 -14   396.0   212.9
 -13  -8   0     7.6    13.4
 -13  -8  -1  1713.6    14.7
 -13  -8  -2    36.2    10.0
 -13  -8  -3   781.8    14.0
 -13  -8  -4    21.7    11.3
 -13  -8  -5    81.9    13.4
 -13  -8  -6   147.6    15.4
 -13  -8  -7  1723.5    25.6
 -13  -8  -8  4500.0    51.8
 -13  -8  -9  1954.3    36.6
 -13  -8 -10  1157.2    45.1
 -13  -8 -11   899.1    54.1
 -13  -8 -12  5804.5   107.0
 -13  -8 -13  2094.5   167.6
 -13  -8 -14   559.9   221.0
 -13  -8 -15  -167.3   321.3
 -13  -7   0   144.5    11.0
 -13  -7  -1    51.3     7.1
 -13  -7  -2    21.0     8.3
 -13  -7  -3  2705.6    20.3
 -13  -7  -4  2808.9    21.3
 -13  -7  -5   221.1    12.4
 -13  -7  -6  1790.7    19.3
 -13  -7  -7   112.6    18.0
 -13  -7  -8    25.1    22.1
 -13  -7  -9  1628.6    32.6
 -13  -7 -10   839.6    42.7
 -13  -7 -11  4826.5    80.0
 -13  -7 -12   530.5    75.8
 -13  -7 -13  3277.4   171.0
 -13  -7 -14   -20.4   168.9
 -13  -7 -15  1886.4   261.7
 -13  -6  -1   433.3     8.2
 -13  -6  -2     7.6     7.5
 -13  -6  -3   455.6     9.5
 -13  -6  -4   228.3     9.3
 -13  -6  -5   640.5    11.3
 -13  -6  -6  1520.6    17.9
 -13  -6  -7   904.3    17.9
 -13  -6  -8   230.1    20.6
 -13  -6  -9  1823.9    32.9
 -13  -6 -10  3345.0    48.0
 -13  -6 -11     9.8    48.0
 -13  -6 -12  1169.6    66.6
 -13  -6 -13  1770.9   122.2
 -13  -6 -14  1659.7   150.2
 -13  -6 -15  -120.7   238.9
 -13  -5   0   135.0    12.1
 -13  -5  -1    21.1     7.2
 -13  -5  -2   -19.4     7.3
 -13  -5  -3   907.0    10.2
 -13  -5  -4    54.0     8.9
 -13  -5  -5  1243.3    13.3
 -13  -5  -6   656.1    12.8
 -13  -5  -7  3491.9    28.9
 -13  -5  -8   904.3    21.7
 -13  -5  -9  1756.9    29.7
 -13  -5 -10   421.1    32.1
 -13  -5 -11   -74.5    45.2
 -13  -5 -12    31.5    65.9
 -13  -5 -13  5400.5   196.0
 -13  -5 -14  -381.7   156.7
 -13  -5 -15  1666.4   233.5
 -13  -4   0     6.7    13.3
 -13  -4  -1   494.1     9.2
 -13  -4  -2   569.3     8.7
 -13  -4  -3    22.5     7.7
 -13  -4  -4  8717.1    49.4
 -13  -4  -5   248.0     9.0
 -13  -4  -6    45.6    10.7
 -13  -4  -7   865.9    15.6
 -13  -4  -8  3389.6    32.6
 -13  -4  -9  2421.8    32.7
 -13  -4 -10  4944.1    57.3
 -13  -4 -11   -15.0    43.5
 -13  -4 -12    50.8    62.3
 -13  -4 -14  5811.3   169.2
 -13  -4 -15   431.3   199.9
 -13  -4 -16   -36.6   347.3
 -13  -3   0    77.3    14.3
 -13  -3  -1  6022.0    32.7
 -13  -3  -2  2904.4    18.6
 -13  -3  -3  1095.7    11.5
 -13  -3  -4  1057.5    10.4
 -13  -3  -5   154.2     7.9
 -13  -3  -6   957.4    11.3
 -13  -3  -7   435.2    13.2
 -13  -3  -8   405.2    16.6
 -13  -3  -9    80.7    20.3
 -13  -3 -10    43.8    28.4
 -13  -3 -11 12720.1   109.5
 -13  -3 -12   -92.8    51.8
 -13  -3 -13  1980.1    90.1
 -13  -3 -14   164.7   129.5
 -13  -3 -15   240.3   189.7
 -13  -3 -16   733.4   347.6
 -13  -2  -1  1520.1    13.2
 -13  -2  -2  3273.1    24.2
 -13  -2  -3   216.0     8.3
 -13  -2  -4  1350.6    11.8
 -13  -2  -5    87.6     7.5
 -13  -2  -6   418.8     9.9
 -13  -2  -7   150.2    10.7
 -13  -2  -8  2647.3    23.1
 -13  -2  -9   279.0    19.9
 -13  -2 -10    81.5    26.1
 -13  -2 -11   104.1    39.8
 -13  -2 -12  6939.2   100.5
 -13  -2 -14  -259.0   145.8
 -13  -2 -15   487.0   222.5
 -13  -1   0   817.3    18.3
 -13  -1  -1    48.8     8.2
 -13  -1  -2   461.1     9.1
 -13  -1  -3  1069.3    11.0
 -13  -1  -4   101.4     7.5
 -13  -1  -5  3507.4    17.1
 -13  -1  -6   387.6     9.4
 -13  -1  -7   114.5    10.8
 -13  -1  -8   580.3    14.3
 -13  -1  -9   451.2    17.8
 -13  -1 -10   245.9    23.0
 -13  -1 -11  2006.1    41.6
 -13  -1 -12   318.3    49.4
 -13  -1 -13   179.3    75.0
 -13  -1 -14   374.4   134.1
 -13   0  -1  1303.2    12.7
 -13   0  -2  6047.2    40.0
 -13   0  -3    31.5     7.9
 -13   0  -4   555.3     9.0
 -13   0  -5   487.4     8.3
 -13   0  -6   501.3     9.5
 -13   0  -7    88.7    12.3
 -13   0  -8    44.1    12.7
 -13   0  -9  2574.0    28.9
 -13   0 -10  3208.8    41.5
 -13   0 -11  1108.7    74.4
 -13   1   0  1599.4    21.8
 -13   1  -1   120.3     8.2
 -13   1  -2   395.5     8.5
 -13   1  -3   136.3     8.1
 -13   1  -4  1647.9    12.8
 -13   1  -5  4493.7    20.8
 -13   1  -6  1738.0    13.8
 -13   1  -7  1018.8    12.9
 -13   1  -8    64.8    13.6
 -13   1  -9  2752.7    29.3
 -13   1 -10    15.4    25.5
 -13   1 -11  1144.2    42.5
 -13   1 -12    22.8    54.0
 -13   1 -14   888.2   144.3
 -13   1 -15  2032.0   228.5
 -13   2   0    44.1    19.0
 -13   2  -1  4027.1    23.8
 -13   2  -2   568.0     9.2
 -13   2  -3  1188.5    11.1
 -13   2  -4  2271.7    15.2
 -13   2  -5   122.3     7.9
 -13   2  -6   364.8     9.1
 -13   2  -7   851.4    13.5
 -13   2  -8   211.2    14.9
 -13   2  -9   113.1    19.6
 -13   2 -10  3786.4    45.4
 -13   2 -11    14.6    37.6
 -13   2 -12   241.7    50.3
 -13   2 -13   575.8    90.0
 -13   2 -14  4313.2   148.8
 -13   2 -15  -608.5   211.4
 -13   3   0   711.5    17.1
 -13   3  -1  2716.2    18.4
 -13   3  -2  1854.4    15.0
 -13   3  -3   756.1     9.6
 -13   3  -4    13.8     7.6
 -13   3  -5   415.3     9.0
 -13   3  -6   129.2    10.3
 -13   3  -7  5647.2    36.6
 -13   3  -8   134.6    17.2
 -13   3  -9   109.6    22.2
 -13   3 -10   468.4    31.3
 -13   3 -11    44.1    41.2
 -13   3 -12   391.3    54.9
 -13   3 -13   173.5    80.8
 -13   3 -14   552.4   126.8
 -13   3 -15   361.5   184.5
 -13   3 -16   635.5   333.8
 -13   4   0    19.2    10.4
 -13   4  -1   306.5     8.0
 -13   4  -2   159.0     7.3
 -13   4  -3    21.4     7.4
 -13   4  -4  3748.4    22.4
 -13   4  -5    70.6     8.7
 -13   4  -6    58.2    11.2
 -13   4  -7  3475.7    27.3
 -13   4  -8  1311.7    22.8
 -13   4  -9    90.5    22.7
 -13   4 -10  1962.2    36.7
 -13   4 -11   914.3    48.9
 -13   4 -12   211.2    62.5
 -13   4 -13   586.2    93.3
 -13   4 -14  2509.8   157.7
 -13   4 -15  -550.1   216.2
 -13   5   0     9.1    17.5
 -13   5  -1  2656.7    16.8
 -13   5  -2    46.1     7.1
 -13   5  -3   153.9     8.4
 -13   5  -4    19.5     8.6
 -13   5  -5   233.9    10.7
 -13   5  -6    81.2    12.8
 -13   5  -7   321.2    15.4
 -13   5  -8   576.4    21.5
 -13   5  -9   740.3    25.2
 -13   5 -10   395.5    31.4
 -13   5 -11  5646.0    76.9
 -13   5 -12   152.7    58.4
 -13   5 -13  5034.5   155.5
 -13   5 -14   375.2   145.8
 -13   5 -15   366.3   250.7
 -13   6  -1  4496.8    22.0
 -13   6  -2  3683.9    20.9
 -13   6  -3   605.0    11.0
 -13   6  -4    28.4     9.7
 -13   6  -5   296.9    11.2
 -13   6  -6   447.9    14.3
 -13   6  -7   152.7    16.8
 -13   6  -8   116.6    19.6
 -13   6  -9  1584.0    31.0
 -13   6 -10    -8.5    36.9
 -13   6 -11   -35.4    47.2
 -13   6 -12  4245.6    89.9
 -13   6 -14   187.0   153.7
 -13   6 -15   325.0   231.6
 -13   7   0   896.2    16.9
 -13   7  -1   756.3     9.9
 -13   7  -2    43.1     9.7
 -13   7  -3  7217.8    45.7
 -13   7  -4   129.6    10.0
 -13   7  -5   602.1    14.1
 -13   7  -6   479.7    15.2
 -13   7  -7  2465.0    28.3
 -13   7  -8   159.5    20.8
 -13   7  -9    87.0    27.1
 -13   7 -10  2046.4    46.1
 -13   7 -11   571.3    49.3
 -13   7 -12    64.6    73.1
 -13   7 -13   182.7   119.2
 -13   7 -14  -312.8   191.9
 -13   7 -15   802.2   241.9
 -13   8   0    36.2    11.9
 -13   8  -1   142.8    10.3
 -13   8  -2    25.0    11.7
 -13   8  -3  1129.1    15.6
 -13   8  -4  1807.2    19.3
 -13   8  -5  1166.8    16.2
 -13   8  -6   785.4    18.2
 -13   8  -7   135.2    19.6
 -13   8  -8  2343.0    38.3
 -13   8  -9 11410.5   110.5
 -13   8 -10   186.0    41.0
 -13   8 -11   965.5    54.0
 -13   8 -12  1360.8    77.3
 -13   8 -14   420.7   179.5
 -13   8 -15  1850.1   314.0
 -13   9   0   381.8    19.0
 -13   9  -1    88.0    12.1
 -13   9  -2   630.6    13.7
 -13   9  -3    20.1    12.5
 -13   9  -4    73.0    12.1
 -13   9  -5  1244.8    19.0
 -13   9  -6   487.1    19.4
 -13   9  -7    98.4    20.3
 -13   9  -8    -7.6    25.8
 -13   9  -9   430.5    37.2
 -13   9 -10   233.2    45.8
 -13   9 -11  4094.0    83.2
 -13   9 -12  -240.1    98.0
 -13   9 -13  2136.6   162.3
 -13   9 -14  -229.7   181.8
 -13   9 -15   429.0   286.9
 -13  10   0    95.7    27.2
 -13  10  -1  4074.8    40.2
 -13  10  -2     5.3    14.6
 -13  10  -3    38.7    12.9
 -13  10  -4   697.8    16.4
 -13  10  -5   144.1    15.9
 -13  10  -6   137.6    19.5
 -13  10  -7   100.6    23.6
 -13  10  -8     4.8    32.9
 -13  10  -9   753.2    40.5
 -13  10 -10   312.7    49.4
 -13  10 -11   -86.0    65.9
 -13  10 -12   860.5   113.9
 -13  10 -14   505.6   198.3
 -13  10 -15   475.4   342.3
 -13  11   0  1054.9    45.6
 -13  11  -1    46.8    26.3
 -13  11  -2   880.8    18.6
 -13  11  -3  4539.9    35.8
 -13  11  -4     9.4    16.5
 -13  11  -5  6112.6    48.8
 -13  11  -6     5.6    22.0
 -13  11  -7   823.4    29.2
 -13  11  -8   335.1    35.4
 -13  11  -9    43.3    44.4
 -13  11 -10   176.9    60.4
 -13  11 -11   698.9    85.7
 -13  11 -12   596.0   115.5
 -13  11 -13  5328.2   224.8
 -13  11 -14   521.9   272.4
 -13  12  -1   129.1    38.3
 -13  12  -2  2255.5    36.1
 -13  12  -3  1221.9    22.2
 -13  12  -4   214.5    18.8
 -13  12  -5   378.5    22.7
 -13  12  -6    46.5    25.8
 -13  12  -7  5628.7    66.7
 -13  12  -8   532.0    38.7
 -13  12  -9    61.0    48.3
 -13  12 -10  3699.9    86.4
 -13  12 -11  5273.0   139.0
 -13  12 -12   971.9   157.7
 -13  12 -14   160.5   285.9
 -13  13  -1    70.6    44.9
 -13  13  -2     6.2    29.2
 -13  13  -3   139.8    19.9
 -13  13  -4    53.0    21.4
 -13  13  -5    44.9    24.1
 -13  13  -6    45.7    30.3
 -13  13  -7   479.1    39.9
 -13  13  -8    85.5    48.4
 -13  13  -9   728.6    58.9
 -13  13 -10  1329.3    87.2
 -13  13 -11   116.7   126.5
 -13  13 -12   602.0   160.9
 -13  13 -14   304.1   343.3
 -14 -13  -1   482.2    68.4
 -14 -13  -2  1205.0    39.8
 -14 -13  -3  1918.1    34.3
 -14 -13  -4   337.1    26.7
 -14 -13  -5   504.9    32.3
 -14 -13  -6    28.3    35.4
 -14 -13  -7  1559.8    48.5
 -14 -13  -8  1385.9    58.8
 -14 -13  -9   117.2    75.1
 -14 -13 -10  1050.9    99.7
 -14 -13 -11  -200.4   135.9
 -14 -13 -12   208.3   199.4
 -14 -12  -1    28.6    31.5
 -14 -12  -3  3203.4    40.1
 -14 -12  -5   375.5    25.3
 -14 -12  -7   108.0    36.4
 -14 -12  -9   848.5    71.6
 -14 -12 -11   391.0   105.0
 -14 -12 -13   795.7   304.9
 -14 -11  -1  5424.3    52.5
 -14 -11  -2  1601.7    28.7
 -14 -11  -3   800.1    22.2
 -14 -11  -4   231.5    18.5
 -14 -11  -5   456.5    22.3
 -14 -11  -6    -4.2    26.0
 -14 -11  -7   404.7    34.2
 -14 -11  -8   -65.3    37.8
 -14 -11  -9   341.2    54.4
 -14 -11 -10  1255.8    75.5
 -14 -11 -11  5724.7   151.6
 -14 -11 -12  1319.3   143.0
 -14 -11 -13   895.0   246.4
 -14 -10  -1   926.8    18.1
 -14 -10  -3  2647.4    31.4
 -14 -10  -5    26.1    18.9
 -14 -10  -7  1177.9    32.4
 -14 -10  -9    49.0    44.0
 -14 -10 -11  -135.5    81.1
 -14 -10 -13   432.9   165.7
 -14  -9   0   145.2    15.1
 -14  -9  -1  2427.0    22.4
 -14  -9  -2   607.0    15.9
 -14  -9  -3   992.0    19.7
 -14  -9  -4   384.0    17.2
 -14  -9  -5   -35.4    16.9
 -14  -9  -6  2048.7    28.3
 -14  -9  -7    92.0    26.0
 -14  -9  -8   229.9    32.5
 -14  -9 -10   -29.6    54.0
 -14  -9 -11   359.9    76.8
 -14  -9 -12    70.1    96.9
 -14  -9 -13   796.8   149.7
 -14  -8  -1   832.1    11.8
 -14  -8  -3    21.4    12.9
 -14  -8  -5  1922.9    23.3
 -14  -8  -7   381.3    21.3
 -14  -8  -9   235.7    34.7
 -14  -8 -11  -149.4    68.0
 -14  -8 -13   524.6   147.1
 -14  -7  -1   309.1     9.4
 -14  -7  -2   821.6    12.0
 -14  -7  -3  9689.3    59.8
 -14  -7  -4     7.2    12.8
 -14  -7  -5  2556.1    23.7
 -14  -7  -6    -1.6    16.0
 -14  -7  -8    11.6    26.2
 -14  -7  -9    48.6    31.3
 -14  -7 -10  1408.7    50.1
 -14  -7 -11   323.1    68.7
 -14  -7 -12   889.3    90.6
 -14  -7 -13  1370.8   124.0
 -14  -7 -15   959.6   310.0
 -14  -6  -1  1771.8    15.2
 -14  -6  -3   449.5    11.0
 -14  -6  -5  1504.2    17.1
 -14  -6  -7   312.2    18.9
 -14  -6  -9   -56.5    31.3
 -14  -6 -11   423.6    53.1
 -14  -6 -13   414.8   114.9
 -14  -6 -15    86.3   340.7
 -14  -5   0    80.8    13.2
 -14  -5  -1  3019.7    18.3
 -14  -5  -2   431.8     9.2
 -14  -5  -3    51.2     9.3
 -14  -5  -4   837.7    12.2
 -14  -5  -5  1511.7    16.4
 -14  -5  -6  1220.0    17.0
 -14  -5  -7  1023.1    20.8
 -14  -5  -8    72.0    21.4
 -14  -5  -9    -5.6    29.5
 -14  -5 -10   192.0    37.0
 -14  -5 -11   408.5    50.8
 -14  -5 -12    64.6    86.8
 -14  -5 -13   131.9   118.9
 -14  -5 -14   150.5   202.6
 -14  -4  -1  1382.1    12.7
 -14  -4  -3  2077.7    16.4
 -14  -4  -5  1988.7    15.8
 -14  -4  -7   163.4    16.8
 -14  -4  -9    66.6    27.6
 -14  -4 -11   263.1    52.2
 -14  -4 -13  -137.4   102.1
 -14  -4 -15  -194.7   274.4
 -14  -3   0    63.0    19.2
 -14  -3  -1  4498.2    26.6
 -14  -3  -2   264.2     8.5
 -14  -3  -3   627.2    10.2
 -14  -3  -4    83.9     9.2
 -14  -3  -5   417.4    10.2
 -14  -3  -6  1694.5    15.5
 -14  -3  -7    14.6    13.5
 -14  -3  -8  3214.5    32.1
 -14  -3  -9  3987.2    42.4
 -14  -3 -10   757.7    35.5
 -14  -3 -11  1335.2    51.8
 -14  -3 -12   277.6    67.1
 -14  -3 -13  1217.6    93.7
 -14  -3 -14  1760.9   161.2
 -14  -3 -15  -567.1   265.0
 -14  -2  -1    40.6     8.0
 -14  -2  -3   128.7     8.4
 -14  -2  -5   794.7    10.6
 -14  -2  -7  1366.0    16.5
 -14  -2  -9    31.7    22.6
 -14  -2 -11   405.0    47.9
 -14  -2 -13   490.5   101.4
 -14  -2 -15  -638.9   309.3
 -14  -1  -1    31.0     8.0
 -14  -1  -2  2826.9    18.9
 -14  -1  -3    58.5     8.0
 -14  -1  -4     7.5     8.8
 -14  -1  -5   -27.4     9.5
 -14  -1  -6   478.1    10.8
 -14  -1  -7    20.8    12.4
 -14  -1  -8  3075.8    27.6
 -14  -1  -9   256.0    20.6
 -14  -1 -10    28.5    28.7
 -14  -1 -11   584.4    38.8
 -14  -1 -12   304.1    60.6
 -14  -1 -13  1050.9    90.7
 -14  -1 -14   959.7   144.7
 -14   0  -1  1646.8    14.7
 -14   0  -3  1339.2    12.5
 -14   0  -5   -18.4     8.7
 -14   0 -11   710.9    45.0
 -14   1  -1  1582.2    14.2
 -14   1  -2  2295.5    16.6
 -14   1  -3  1419.4    13.1
 -14   1  -4   161.7     9.3
 -14   1  -5   979.5    11.1
 -14   1  -6  3063.5    20.7
 -14   1  -7   542.8    14.0
 -14   1  -8  2549.1    25.3
 -14   1  -9   135.9    22.0
 -14   1 -10  8858.2    76.9
 -14   1 -11   294.6    46.7
 -14   1 -12  1225.0    74.3
 -14   1 -13    25.5    98.5
 -14   1 -15    -0.9   301.5
 -14   2  -1   673.5     9.9
 -14   2  -3  1269.9    12.8
 -14   2  -5   525.9    10.2
 -14   2  -7   324.2    13.4
 -14   2  -9   440.4    23.7
 -14   2 -11  1870.6    52.4
 -14   2 -13    99.7    86.4
 -14   3   0    12.6    17.5
 -14   3  -1   368.2     8.6
 -14   3  -2  1151.1    11.9
 -14   3  -3    67.5     8.6
 -14   3  -4  1273.5    13.0
 -14   3  -5    26.8     8.9
 -14   3  -6  1054.8    14.0
 -14   3  -7    55.5    14.8
 -14   3  -8  1474.1    24.2
 -14   3  -9   -28.6    26.6
 -14   3 -10   348.2    36.2
 -14   3 -11   693.6    46.8
 -14   3 -12  2395.5    75.5
 -14   3 -13   998.2    98.7
 -14   3 -14   220.1   150.6
 -14   3 -15   342.0   258.0
 -14   4  -1   159.6     8.1
 -14   4  -3   102.6     8.7
 -14   4  -5  3301.4    23.1
 -14   4  -7   -21.4    16.9
 -14   4  -9   193.0    28.2
 -14   4 -11   249.9    51.4
 -14   4 -13   -18.7   111.3
 -14   4 -15  -194.4   299.1
 -14   5   0    12.9    11.4
 -14   5  -1   127.9     9.0
 -14   5  -2    97.0     8.3
 -14   5  -3   531.5    10.2
 -14   5  -4    11.1    11.1
 -14   5  -5   147.3    12.0
 -14   5  -6    55.7    14.9
 -14   5  -7   762.4    19.4
 -14   5  -8  4357.9    42.5
 -14   5  -9   332.0    30.0
 -14   5 -10    18.4    35.9
 -14   5 -11  2317.3    59.3
 -14   5 -12  1798.8    82.0
 -14   5 -13   319.1   101.9
 -14   5 -14   871.4   194.5
 -14   5 -15   392.3   312.5
 -14   6  -1   850.4    10.8
 -14   6  -3    70.5    11.1
 -14   6  -5  1203.2    16.3
 -14   6  -7  2590.3    30.7
 -14   6  -9   136.9    29.6
 -14   6 -11    14.4    63.4
 -14   6 -13  2807.4   121.6
 -14   6 -15   345.8   277.7
 -14   7  -1   940.7    11.9
 -14   7  -2   311.3    12.0
 -14   7  -3   565.2    14.0
 -14   7  -4   403.4    13.7
 -14   7  -5   773.3    16.7
 -14   7  -6  3049.2    30.1
 -14   7  -8   197.0    27.0
 -14   7  -9   938.9    35.0
 -14   7 -10  1635.6    48.9
 -14   7 -11   246.8    67.2
 -14   7 -12   233.1    86.1
 -14   7 -13  -190.4   130.7
 -14   7 -15  1421.0   333.6
 -14   8  -1  1313.6    15.9
 -14   8  -3  1207.1    19.2
 -14   8  -5     2.2    15.4
 -14   8  -7   723.2    25.6
 -14   8  -9    60.1    38.3
 -14   8 -11    17.8    66.6
 -14   8 -13  -115.7   128.6
 -14   9   0    90.7    16.8
 -14   9  -1    60.8    13.0
 -14   9  -2   163.6    16.0
 -14   9  -3   316.6    16.7
 -14   9  -4   982.0    18.8
 -14   9  -5   563.3    19.7
 -14   9  -6   192.9    20.1
 -14   9  -7   895.5    28.9
 -14   9  -8   293.4    31.2
 -14   9  -9  1785.6    47.9
 -14   9 -10  4281.9    85.0
 -14   9 -11   294.7    75.3
 -14   9 -12    68.3    95.9
 -14   9 -13   532.3   144.2
 -14   9 -15  -457.9   357.8
 -14  10  -1    56.4    17.7
 -14  10  -3   808.7    20.8
 -14  10  -5   504.3    21.1
 -14  10  -7   -30.0    27.4
 -14  10  -9   -56.6    46.5
 -14  10 -11  2019.9    92.7
 -14  10 -13  -556.3   207.2
 -14  11  -1   893.8    28.8
 -14  11  -2  3690.7    42.3
 -14  11  -3  1990.8    27.3
 -14  11  -4    38.3    20.2
 -14  11  -5     3.2    21.6
 -14  11  -6   151.4    28.4
 -14  11  -7  2614.3    43.7
 -14  11  -8  5316.5    71.0
 -14  11  -9     1.5    59.1
 -14  11 -10   -68.8    64.2
 -14  11 -11  4047.7   111.1
 -14  11 -12   -18.8   140.8
 -14  11 -13  1233.4   246.0
 -14  12  -1  3698.1    76.0
 -14  12  -3    97.6    20.3
 -14  12  -5   294.5    26.9
 -14  12  -7   139.0    38.0
 -14  12  -9  2461.6    74.2
 -14  12 -11  2533.7   127.7
 -14  12 -13   627.9   255.5
 -14  13  -1    41.8    72.6
 -14  13  -2   467.3    45.4
 -14  13  -3   679.9    24.3
 -14  13  -4  2206.4    36.8
 -14  13  -5   260.8    29.9
 -14  13  -6  1744.0    44.7
 -14  13  -7   173.0    44.4
 -14  13  -8   -45.5    57.3
 -14  13  -9   517.2    69.4
 -14  13 -10  3123.8   105.1
 -14  13 -11  1890.5   147.1
 -14  13 -12  2010.0   237.7
 -14  13 -13  1345.4   355.2
 -14  14  -3   227.6    29.7
 -14  14  -5   616.2    39.8
 -14  14  -9   257.6    91.1
 -15 -14  -2   -28.7    53.1
 -15 -14  -3  -107.7    39.6
 -15 -14  -4  1548.4    45.7
 -15 -14  -5   666.1    49.4
 -15 -14  -6  1433.1    58.7
 -15 -14  -7   462.0    60.0
 -15 -14  -8   -65.9    78.2
 -15 -14  -9  5663.5   147.9
 -15 -14 -10   -32.3   153.2
 -15 -14 -11  -134.2   203.5
 -15 -14 -12  3063.4   320.5
 -15 -13  -1  4310.4    93.8
 -15 -13  -2  1017.5    37.9
 -15 -13  -3  4658.8    76.3
 -15 -13  -4    -1.4    31.1
 -15 -13  -5   858.3    41.4
 -15 -13  -6   -50.7    41.2
 -15 -13  -7  5037.7    82.3
 -15 -13  -8   399.5    66.5
 -15 -13  -9    69.5    84.7
 -15 -13 -10   591.0   140.1
 -15 -13 -11   904.7   150.1
 -15 -13 -12    42.2   220.8
 -15 -12  -1   742.9    36.6
 -15 -12  -2  1927.5    43.6
 -15 -12  -4   -23.9    29.3
 -15 -12  -5    24.5    30.1
 -15 -12  -7   -26.3    48.0
 -15 -12  -8   605.1    55.5
 -15 -12 -10  1271.3   107.8
 -15 -12 -11   235.2   142.0
 -15 -12 -13  -536.0   320.6
 -15 -11   0   504.5    38.6
 -15 -11  -1   478.5    23.9
 -15 -11  -2  1252.5    30.8
 -15 -11  -3   222.5    26.2
 -15 -11  -4    49.0    25.3
 -15 -11  -5   591.3    28.5
 -15 -11  -6   409.9    32.8
 -15 -11  -7   107.4    38.7
 -15 -11  -8   145.1    46.3
 -15 -11  -9   509.9    61.9
 -15 -11 -10   395.7    88.9
 -15 -11 -11  2032.8   148.6
 -15 -11 -12    53.0   170.5
 -15 -11 -13   287.2   265.1
 -15 -11 -14   -67.9   368.7
 -15 -10  -1  3780.8    37.9
 -15 -10  -2  2497.0    33.1
 -15 -10  -3    82.5    23.2
 -15 -10  -4    46.5    22.9
 -15 -10  -6  1343.6    30.0
 -15 -10  -7   595.1    34.8
 -15 -10  -8   616.5    46.1
 -15 -10  -9  3166.6    66.9
 -15 -10 -11   732.3   117.6
 -15 -10 -12   194.4   131.5
 -15 -10 -13   656.1   206.4
 -15 -10 -14  1025.1   327.0
 -15  -9  -1   272.1    14.6
 -15  -9  -2  2509.0    27.4
 -15  -9  -4   179.3    21.7
 -15  -9  -5  2840.4    32.7
 -15  -9  -7  2260.7    38.1
 -15  -9  -8   224.7    38.6
 -15  -9 -10   334.1    62.7
 -15  -9 -11   -42.2    90.8
 -15  -9 -13   173.2   177.9
 -15  -9 -14   103.7   329.1
 -15  -8   0   105.8    17.3
 -15  -8  -1     6.5    10.7
 -15  -8  -2   148.9    13.6
 -15  -8  -3   453.6    17.5
 -15  -8  -4  2797.3    33.5
 -15  -8  -5   235.0    19.0
 -15  -8  -6   165.4    22.1
 -15  -8  -7  2069.8    32.8
 -15  -8  -8  1211.4    38.8
 -15  -8  -9   -97.0    45.5
 -15  -8 -10   518.1    56.4
 -15  -8 -11   -90.7    75.8
 -15  -8 -12  -162.8   134.7
 -15  -8 -13   249.2   179.6
 -15  -8 -14    61.5   289.9
 -15  -7  -1  2351.3    20.5
 -15  -7  -2   342.9    11.7
 -15  -7  -3   767.3    15.6
 -15  -7  -4    74.7    16.4
 -15  -7  -5  2151.9    26.7
 -15  -7  -6   349.6    21.9
 -15  -7  -7   317.3    26.0
 -15  -7  -8   221.0    31.4
 -15  -7  -9   439.9    41.5
 -15  -7 -10   468.6    56.4
 -15  -7 -11  2302.5    84.8
 -15  -7 -12   305.2   107.7
 -15  -7 -13   288.5   145.2
 -15  -7 -14   183.0   235.8
 -15  -6  -1  2586.6    19.9
 -15  -6  -2    84.0    10.2
 -15  -6  -4  5859.1    39.3
 -15  -6  -5    57.1    15.7
 -15  -6  -7  4561.0    43.6
 -15  -6  -8   586.3    29.0
 -15  -6 -10    45.1    47.0
 -15  -6 -11     4.5    65.0
 -15  -6 -13   365.5   153.5
 -15  -6 -14   493.9   220.2
 -15  -5  -1 12243.9    57.8
 -15  -5  -2    35.8     9.5
 -15  -5  -3   360.5    11.8
 -15  -5  -4   157.4    11.9
 -15  -5  -6    22.2    16.1
 -15  -5  -7  2950.2    33.9
 -15  -5  -8   573.0    27.3
 -15  -5  -9    75.2    34.2
 -15  -5 -11   514.1    61.5
 -15  -5 -12  -210.9    96.8
 -15  -5 -13  -379.3   142.5
 -15  -5 -14   -29.4   239.7
 -15  -4  -1   140.1     9.3
 -15  -4  -2     7.9     9.9
 -15  -4  -3  2407.6    18.3
 -15  -4  -4  2164.2    19.7
 -15  -4  -5   433.7    12.7
 -15  -4  -6   249.5    14.7
 -15  -4  -7   119.3    18.1
 -15  -4  -8   112.6    25.5
 -15  -4  -9  2856.9    45.1
 -15  -4 -10   261.8    45.2
 -15  -4 -11    12.9    64.1
 -15  -4 -12   196.2    85.5
 -15  -4 -13  1595.5   131.0
 -15  -4 -14   159.1   199.3
 -15  -4 -15  1853.0   349.5
 -15  -3  -1   107.4     8.9
 -15  -3  -2   451.0    10.4
 -15  -3  -4  2213.8    19.4
 -15  -3  -5    53.0    11.2
 -15  -3  -7   623.1    17.0
 -15  -3  -8  1209.2    26.0
 -15  -3 -10  4178.2    61.0
 -15  -3 -11   873.4    57.9
 -15  -3 -13    33.3   122.9
 -15  -3 -14  1151.0   180.0
 -15  -2  -1  7040.3    35.5
 -15  -2  -2  1887.4    16.1
 -15  -2  -3   121.4     9.7
 -15  -2  -4  1040.5    13.3
 -15  -2  -5   148.5    11.8
 -15  -2  -6  3257.9    23.8
 -15  -2  -7  4603.9    34.2
 -15  -2  -8    16.4    19.1
 -15  -2  -9 11784.4    78.7
 -15  -2 -10   845.0    38.4
 -15  -2 -11     2.4    53.4
 -15  -2 -12   -92.8    87.9
 -15  -2 -13   -56.7   137.0
 -15  -2 -14  -295.2   201.4
 -15  -1   0  1101.4    19.4
 -15  -1  -1   288.9     9.1
 -15  -1  -2    47.9     9.0
 -15  -1  -3 14631.3    80.8
 -15  -1  -4   461.5    11.9
 -15  -1  -5   825.0    13.5
 -15  -1  -6  3107.2    23.0
 -15  -1  -7 13689.8    85.1
 -15  -1  -8     1.6    19.4
 -15  -1  -9    36.0    24.3
 -15  -1 -10   514.5    33.6
 -15  -1 -11   321.0    49.2
 -15  -1 -12   347.1    70.6
 -15  -1 -13   -32.9   112.4
 -15  -1 -14   458.8   178.9
 -15   0  -1  1082.4    11.7
 -15   0  -2  4017.9    28.5
 -15   0  -4   174.4    10.7
 -15   0  -7   516.7    16.1
 -15   0  -8  1459.6    23.8
 -15   0 -11  2103.5   113.3
 -15   1   0    40.2    13.2
 -15   1  -1  1405.0    14.0
 -15   1  -2   698.6    10.4
 -15   1  -3   344.4    10.5
 -15   1  -4   163.2    10.2
 -15   1  -5  1961.1    17.6
 -15   1  -6   685.1    13.3
 -15   1  -7   282.3    15.6
 -15   1  -8   437.6    19.4
 -15   1  -9   158.2    27.0
 -15   1 -10    -9.7    38.2
 -15   1 -11  5580.0    87.5
 -15   1 -12   201.5    84.1
 -15   1 -13    99.6   134.5
 -15   1 -14    89.8   198.9
 -15   2   0    -3.7    16.5
 -15   2  -1  5554.2    29.0
 -15   2  -2  1214.5    14.4
 -15   2  -3  1609.9    15.0
 -15   2  -4  1407.7    15.4
 -15   2  -5  1022.8    14.0
 -15   2  -6  1147.4    15.8
 -15   2  -7   780.0    17.3
 -15   2  -8    45.7    20.6
 -15   2  -9   138.9    28.2
 -15   2 -10  2332.8    48.1
 -15   2 -11  1359.1    58.1
 -15   2 -12   567.3    80.4
 -15   2 -13  -113.4   115.0
 -15   2 -14   552.6   168.7
 -15   3  -1  2295.5    17.5
 -15   3  -2   469.3    10.3
 -15   3  -4   918.3    13.6
 -15   3  -5  5983.0    34.7
 -15   3  -7   314.6    16.5
 -15   3  -8  1809.5    28.2
 -15   3 -10   205.6    39.8
 -15   3 -11    16.5    54.7
 -15   3 -13   133.2   116.7
 -15   3 -14  1498.7   193.7
 -15   4  -1   191.8     9.9
 -15   4  -2     9.3     9.2
 -15   4  -3  1639.2    16.6
 -15   4  -4  4189.2    39.7
 -15   4  -5    18.2    12.8
 -15   4  -6    88.5    14.9
 -15   4  -7  3083.3    32.7
 -15   4  -8   241.2    24.6
 -15   4  -9   773.1    33.8
 -15   4 -10   216.3    44.6
 -15   4 -11     6.9    68.5
 -15   4 -12   166.7    89.3
 -15   4 -13   806.6   135.5
 -15   4 -14   226.7   218.0
 -15   5  -1  3001.4    21.6
 -15   5  -2   486.9    10.8
 -15   5  -3    80.8    10.6
 -15   5  -4   304.7    13.0
 -15   5  -6   406.5    16.8
 -15   5  -7    35.1    20.8
 -15   5  -8   143.9    26.3
 -15   5  -9  1619.0    41.1
 -15   5 -11  3952.6    81.7
 -15   5 -12   -51.7    84.9
 -15   5 -13   402.1   125.4
 -15   5 -14    96.9   226.2
 -15   6  -1  6146.5    31.6
 -15   6  -2   453.3    11.3
 -15   6  -4   335.4    16.4
 -15   6  -5  1839.4    22.9
 -15   6  -7    38.5    22.7
 -15   6  -8   692.8    30.0
 -15   6 -10   140.7    51.7
 -15   6 -11   119.8    63.4
 -15   6 -13   456.1   133.0
 -15   6 -14   -12.5   213.0
 -15   7   0   181.3    16.3
 -15   7  -1    64.8    10.6
 -15   7  -2   381.6    12.7
 -15   7  -3  2731.0    29.6
 -15   7  -4   290.8    19.1
 -15   7  -5    12.0    16.2
 -15   7  -6   303.9    20.8
 -15   7  -7  2173.3    33.9
 -15   7  -8   148.1    32.6
 -15   7  -9    22.7    42.2
 -15   7 -10   612.3    52.6
 -15   7 -11    35.7    75.2
 -15   7 -12   167.6   118.7
 -15   7 -13  -190.4   162.6
 -15   7 -14  1760.4   277.5
 -15   8  -1   211.6    12.9
 -15   8  -2     4.6    16.2
 -15   8  -3  4111.3    40.0
 -15   8  -4  3566.0    38.3
 -15   8  -5  2187.3    27.7
 -15   8  -6   291.5    22.6
 -15   8  -7   816.7    29.5
 -15   8  -8   738.3    44.2
 -15   8  -9  1933.8    50.7
 -15   8 -10   196.4    55.9
 -15   8 -11  -109.4    81.4
 -15   8 -12  2590.1   128.2
 -15   8 -13  2709.4   194.6
 -15   8 -14    44.5   281.5
 -15   9  -1   816.6    18.3
 -15   9  -2  1019.0    24.5
 -15   9  -4    44.7    21.0
 -15   9  -5   289.7    21.8
 -15   9  -7   122.1    32.3
 -15   9  -8   819.0    42.9
 -15   9 -10  2381.0    84.2
 -15   9 -11  4046.8   125.8
 -15   9 -13  1095.7   184.3
 -15   9 -14   871.2   283.6
 -15  10  -1  7908.3    64.6
 -15  10  -2    57.8    20.4
 -15  10  -3     1.1    24.2
 -15  10  -4  2852.1    39.2
 -15  10  -6   532.0    29.7
 -15  10  -7     4.9    32.8
 -15  10  -8   653.9    43.1
 -15  10  -9  2264.7    63.0
 -15  10 -11   134.0   117.3
 -15  10 -12   369.9   150.5
 -15  10 -13  -303.1   232.2
 -15  11  -1  4675.7    58.9
 -15  11  -2   535.7    26.6
 -15  11  -3   599.7    29.3
 -15  11  -4    82.9    23.3
 -15  11  -5  3993.2    46.5
 -15  11  -6   145.7    33.0
 -15  11  -7  6998.8    84.2
 -15  11  -8  -118.8    47.9
 -15  11  -9   465.0    61.1
 -15  11 -10    77.3    86.1
 -15  11 -11  1277.5   112.1
 -15  11 -12   312.9   157.0
 -15  11 -13   593.1   269.8
 -15  12  -1   588.9    51.0
 -15  12  -2  5687.0    75.6
 -15  12  -4    98.4    27.2
 -15  12  -5  1260.0    37.2
 -15  12  -7   556.0    46.6
 -15  12  -8  2900.7    70.2
 -15  12 -10   679.9   115.3
 -15  12 -11   660.0   125.9
 -15  12 -13  -275.5   315.9
 -15  13  -2   781.5    50.9
 -15  13  -3  3920.7    63.5
 -15  13  -4   243.8    32.7
 -15  13  -5    16.3    39.5
 -15  13  -6    27.1    44.9
 -15  13  -7   398.6    59.6
 -15  13  -8    69.9    66.7
 -15  13  -9  -147.0    91.1
 -15  13 -10  -122.9   111.2
 -15  13 -11  6159.2   216.1
 -15  13 -12   245.1   262.3
 -15  14  -2  1397.8    85.5
 -15  14  -3  1189.7    41.1
 -15  14  -4    17.2    43.3
 -15  14  -5   -23.5    40.7
 -15  14  -6   656.9    56.3
 -15  14  -7   300.0    65.4
 -15  14  -8    12.8    88.4
 -15  14  -9  1922.4   106.4
 -15  14 -10  2822.5   145.4
 -15  14 -11    56.6   190.5
 -15  15  -4   495.0    49.3
 -15  15  -7   -24.9    79.5
 -15  15  -8  1854.8   118.2
 -15  15 -11  1354.5   241.4
 -16 -15  -2   220.4    89.3
 -16 -15  -3  6103.5   123.9
 -16 -15  -4  2145.2    65.4
 -16 -15  -5  -100.4    67.3
 -16 -15  -6   575.6    85.5
 -16 -15  -7   895.9   102.9
 -16 -15  -8  1098.6   125.8
 -16 -15  -9   572.6   162.6
 -16 -15 -10   330.4   241.0
 -16 -15 -11  -120.3   295.5
 -16 -14  -3  1512.4    67.1
 -16 -14  -5  2431.9    71.5
 -16 -14  -7    33.9    93.6
 -16 -14  -9   460.2   127.7
 -16 -14 -11  -669.5   311.5
 -16 -13  -1   -29.5    52.8
 -16 -13  -2   328.6    45.3
 -16 -13  -3   120.3    46.3
 -16 -13  -4   313.9    47.9
 -16 -13  -5  1654.3    51.3
 -16 -13  -6  1917.4    58.7
 -16 -13  -7  1306.6    77.8
 -16 -13  -8  2462.1    91.6
 -16 -13  -9  3550.3   135.1
 -16 -13 -10  -451.6   151.6
 -16 -13 -11   -61.3   219.1
 -16 -13 -12  -110.3   267.3
 -16 -12  -1   416.1    30.8
 -16 -12  -3   198.3    39.4
 -16 -12  -5    65.5    39.7
 -16 -12  -7    75.9    55.0
 -16 -12  -9   322.7    87.3
 -16 -12 -11   389.1   183.3
 -16 -11  -1   622.3    27.2
 -16 -11  -2   990.7    34.8
 -16 -11  -3   484.8    32.4
 -16 -11  -4   140.2    34.3
 -16 -11  -5  1626.5    39.5
 -16 -11  -6   384.7    37.1
 -16 -11  -7   246.9    45.1
 -16 -11  -8   -24.7    63.8
 -16 -11  -9   575.8    74.4
 -16 -11 -10   170.0    99.8
 -16 -11 -11   591.0   173.8
 -16 -11 -12    66.8   251.4
 -16 -11 -13   237.2   292.4
 -16 -10  -1  1123.5    24.0
 -16 -10  -3   628.0    29.0
 -16 -10  -5    70.1    30.9
 -16 -10  -7   199.5    40.8
 -16 -10  -9   124.6    71.0
 -16 -10 -11  2342.6   128.2
 -16 -10 -13   224.4   292.8
 -16  -9  -1     1.4    15.7
 -16  -9  -2   160.1    20.8
 -16  -9  -3    49.6    21.4
 -16  -9  -4  1359.8    33.0
 -16  -9  -5  2146.6    36.0
 -16  -9  -6   785.6    34.4
 -16  -9  -7  4847.9    62.1
 -16  -9  -8  2917.2    55.1
 -16  -9 -10  1257.1    79.0
 -16  -9 -11  1134.4   109.1
 -16  -9 -12  -147.0   166.8
 -16  -9 -13   -20.0   261.2
 -16  -8  -1   324.9    13.8
 -16  -8  -3   -43.5    19.2
 -16  -8  -5    61.8    25.1
 -16  -8  -7   -45.4    35.0
 -16  -8  -9   290.5    57.2
 -16  -8 -11   241.1    93.0
 -16  -8 -13    74.9   260.6
 -16  -7   0    92.5    21.8
 -16  -7  -1   436.1    14.4
 -16  -7  -2   509.9    14.2
 -16  -7  -3   324.3    16.2
 -16  -7  -4   897.5    22.2
 -16  -7  -5  2700.4    34.4
 -16  -7  -6    48.6    24.6
 -16  -7  -7  2340.1    43.7
 -16  -7  -8   329.0    37.4
 -16  -7  -9   -22.8    47.6
 -16  -7 -10  1932.0    82.7
 -16  -7 -11   -61.6    85.0
 -16  -7 -12  1625.2   128.2
 -16  -7 -13  -363.5   212.2
 -16  -7 -14  2049.9   302.8
 -16  -6  -1    26.1    11.4
 -16  -6  -3    43.0    13.9
 -16  -6  -5  2672.4    31.3
 -16  -6  -7    67.3    27.5
 -16  -6  -9  1462.9    49.8
 -16  -6 -11   442.3    80.9
 -16  -6 -13   144.3   174.4
 -16  -5   0    27.2    15.8
 -16  -5  -1   -12.5    11.1
 -16  -5  -2    -5.2    11.7
 -16  -5  -3   827.4    15.4
 -16  -5  -4  1104.2    18.1
 -16  -5  -5   484.7    30.5
 -16  -5  -6  2206.7    26.9
 -16  -5  -7  3503.5    38.5
 -16  -5  -8  2247.2    42.6
 -16  -5  -9  1875.1    48.0
 -16  -5 -10   623.5    56.6
 -16  -5 -11  1293.0   100.8
 -16  -5 -12   169.6   120.7
 -16  -5 -13   474.0   189.4
 -16  -5 -14  -489.4   297.0
 -16  -4  -1   115.3    11.1
 -16  -4  -3    55.7    12.7
 -16  -4  -5  1024.6    19.2
 -16  -4  -7   285.7    22.0
 -16  -4  -9    23.5    38.4
 -16  -4 -11   652.4    80.9
 -16  -4 -13   135.8   157.2
 -16  -4 -15    80.0   384.7
 -16  -3   0    79.5    18.1
 -16  -3  -1   353.0    11.0
 -16  -3  -2    27.5    10.6
 -16  -3  -3 10435.8    64.5
 -16  -3  -4    -2.1    13.0
 -16  -3  -5    14.3    14.6
 -16  -3  -6   362.2    16.1
 -16  -3  -7   284.7    20.0
 -16  -3  -8  2088.1    31.6
 -16  -3  -9  3527.1    49.9
 -16  -3 -10  1600.4    54.3
 -16  -3 -11   -91.2    70.2
 -16  -3 -12  3594.2   122.1
 -16  -3 -13  2321.6   164.0
 -16  -3 -14  -153.0   254.5
 -16  -2  -1   942.1    13.5
 -16  -2  -3   968.4    15.0
 -16  -2  -5    22.5    14.9
 -16  -2  -7   712.9    21.4
 -16  -2  -9   -83.4    31.9
 -16  -2 -11    38.4    69.6
 -16  -2 -13   142.5   176.3
 -16  -1  -1    57.2    10.0
 -16  -1  -2    77.6    10.5
 -16  -1  -3   183.4    11.2
 -16  -1  -4   234.3    13.5
 -16  -1  -5  1659.7    19.2
 -16  -1  -6  1119.6    18.3
 -16  -1  -7  2422.4    27.4
 -16  -1  -8   293.2    23.4
 -16  -1  -9  1094.5    34.5
 -16  -1 -10   399.6    41.3
 -16  -1 -11    77.2    61.0
 -16  -1 -12   256.5    79.0
 -16  -1 -13    95.1   134.6
 -16  -1 -14  -203.4   243.6
 -16   0  -1    65.3    10.2
 -16   0  -3   726.1    17.8
 -16   0  -5   551.3    15.0
 -16   0  -7  1723.2    27.1
 -16   0  -9   916.9    49.1
 -16   1   0    82.9    14.5
 -16   1  -1  2541.5    19.9
 -16   1  -2   180.0    10.4
 -16   1  -3   140.2    12.0
 -16   1  -4   662.6    14.0
 -16   1  -5  1274.8    18.5
 -16   1  -6   299.8    15.0
 -16   1  -7   250.9    18.8
 -16   1  -8    12.2    23.3
 -16   1  -9   123.5    31.0
 -16   1 -10  1912.0    48.8
 -16   1 -11   -87.7    68.1
 -16   1 -12   197.6    96.8
 -16   1 -13  -479.0   172.3
 -16   1 -14  1058.5   290.6
 -16   2  -1   546.5    11.9
 -16   2  -3    19.2    11.4
 -16   2  -5  2007.4    22.0
 -16   2  -7   395.7    18.8
 -16   2  -9    66.9    31.8
 -16   2 -11   136.1    67.5
 -16   2 -13   582.1   148.1
 -16   3   0    54.7    19.4
 -16   3  -1    28.1    10.3
 -16   3  -2   121.6    10.9
 -16   3  -3   457.3    12.9
 -16   3  -4  3189.2    27.5
 -16   3  -5   165.1    14.6
 -16   3  -6    28.7    15.7
 -16   3  -7  1496.8    23.4
 -16   3  -8   111.7    26.8
 -16   3  -9   261.8    35.9
 -16   3 -10   357.1    50.7
 -16   3 -11   804.1    77.9
 -16   3 -12  -215.0    97.4
 -16   3 -13  1518.7   152.6
 -16   3 -14   324.6   231.2
 -16   3 -15   245.2   361.2
 -16   4  -1   931.4    13.5
 -16   4  -3   112.1    12.5
 -16   4  -5  1442.4    20.9
 -16   4  -7   143.5    23.9
 -16   4  -9    51.2    39.3
 -16   4 -11   147.6    76.4
 -16   4 -13    37.7   171.9
 -16   5   0    32.1    15.4
 -16   5  -1  3805.1    26.7
 -16   5  -2    41.3    11.6
 -16   5  -3    71.8    13.5
 -16   5  -4   386.0    15.7
 -16   5  -5   485.6    23.7
 -16   5  -6    54.2    19.2
 -16   5  -7    13.7    25.3
 -16   5  -8   332.4    32.6
 -16   5  -9   616.9    43.1
 -16   5 -10  1277.4    63.2
 -16   5 -11   200.6    74.2
 -16   5 -12  -237.2   105.7
 -16   5 -13   -94.9   156.4
 -16   5 -14    60.6   287.0
 -16   6  -1   130.0    13.3
 -16   6  -3    56.4    15.1
 -16   6  -5   -12.9    20.4
 -16   6  -7   716.1    31.5
 -16   6  -9   643.5    50.0
 -16   6 -11   176.7    78.7
 -16   6 -13    93.4   187.6
 -16   7   0    69.1    27.6
 -16   7  -1  1297.0    18.0
 -16   7  -2   117.3    14.9
 -16   7  -3   264.5    18.5
 -16   7  -4    91.8    22.3
 -16   7  -5  1118.5    25.9
 -16   7  -6  1428.0    31.0
 -16   7  -7   699.8    38.7
 -16   7  -8   357.1    38.7
 -16   7  -9    15.4    52.3
 -16   7 -10   385.8    62.2
 -16   7 -11   -91.7    93.9
 -16   7 -12    87.4   136.6
 -16   7 -13    11.1   230.0
 -16   7 -14   258.3   277.3
 -16   8  -1   137.1    15.6
 -16   8  -3   461.6    23.1
 -16   8  -5    45.7    23.7
 -16   8  -7    75.3    33.5
 -16   8  -9    57.7    56.7
 -16   8 -11   278.1    94.9
 -16   8 -13   202.0   257.4
 -16   9  -1    39.9    17.8
 -16   9  -2    74.7    23.6
 -16   9  -3  8228.8    95.6
 -16   9  -4    77.4    26.8
 -16   9  -5   780.0    27.2
 -16   9  -6   121.1    30.9
 -16   9  -7  2440.9    46.8
 -16   9  -8  3597.2    66.9
 -16   9 -10   197.4    84.9
 -16   9 -11    38.2   112.5
 -16   9 -12  3065.4   182.7
 -16   9 -13   394.3   220.7
 -16   9 -14  -897.0   355.7
 -16  10  -1    80.2    23.5
 -16  10  -3   144.3    30.3
 -16  10  -5  1508.9    38.5
 -16  10  -7    31.9    41.5
 -16  10  -9   433.2    66.8
 -16  10 -11   599.5   173.4
 -16  10 -13  1146.5   255.3
 -16  11  -1   174.0    29.0
 -16  11  -2   204.6    30.8
 -16  11  -3   827.9    39.7
 -16  11  -4   468.0    34.5
 -16  11  -5    92.3    32.4
 -16  11  -6  2092.4    51.0
 -16  11  -7  -140.5    53.0
 -16  11  -8   355.6    63.8
 -16  11  -9   454.9    76.9
 -16  11 -10  1128.9   113.2
 -16  11 -11   300.1   173.2
 -16  11 -12  1749.4   224.4
 -16  11 -13    85.8   335.7
 -16  12  -1   375.2    49.5
 -16  12  -3    69.0    43.7
 -16  12  -5  1498.8    43.6
 -16  12  -7   -65.8    62.1
 -16  12  -9  1086.3   101.9
 -16  12 -11   146.9   178.0
 -16  12 -13  -517.2   360.0
 -16  13  -2  1376.4    62.3
 -16  13  -3    22.6    50.4
 -16  13  -4   263.5    37.9
 -16  13  -5   -17.9    49.6
 -16  13  -6   583.4    58.5
 -16  13  -7   186.0    66.6
 -16  13  -8   575.2    83.6
 -16  13  -9  2230.0   116.5
 -16  13 -10  2947.0   208.0
 -16  13 -11   -45.8   215.2
 -16  13 -12   857.3   280.6
 -16  14  -3   776.0    59.1
 -16  14  -5   973.4    57.6
 -16  14  -7   310.0    83.0
 -16  14  -9   113.2   143.7
 -16  14 -11   740.8   264.7
 -16  15  -3   120.1    72.7
 -16  15  -4   143.9    69.8
 -16  15  -5   -16.8    61.8
 -16  15  -6   296.8    86.9
 -16  15  -7   447.6   101.6
 -16  15  -8  4103.6   149.2
 -16  15  -9   435.7   210.3
 -16  15 -10    28.1   213.5
 -16  15 -11    -2.8   288.1
 -16  16  -3    74.3    84.8
 -16  16  -5   104.2    86.1
 -16  16  -7   299.1   130.0
 -16  16  -9  -126.9   201.1
 -17 -16  -3    64.1   105.2
 -17 -16  -4   707.9   110.6
 -17 -16  -5    10.9   113.4
 -17 -16  -6   -38.0   144.1
 -17 -16  -7  2073.7   174.5
 -17 -16  -8  1263.4   187.0
 -17 -16  -9   -23.6   263.6
 -17 -15  -3   -38.4    97.4
 -17 -15  -4    77.1    81.6
 -17 -15  -5  3588.6   121.7
 -17 -15  -6   -20.6   109.2
 -17 -15  -7    49.2   115.6
 -17 -15  -8  -162.2   160.7
 -17 -15  -9   328.3   209.6
 -17 -15 -10   347.7   280.0
 -17 -14  -2   210.6    70.2
 -17 -14  -3  1182.4    79.8
 -17 -14  -4   543.7    78.9
 -17 -14  -5  2050.4    77.5
 -17 -14  -6   242.8    80.2
 -17 -14  -7   617.7   106.0
 -17 -14  -8  1742.0   154.9
 -17 -14  -9  -168.7   164.1
 -17 -14 -10  -143.7   248.9
 -17 -13  -1   188.1    53.7
 -17 -13  -2   100.4    53.6
 -17 -13  -3   699.0    61.2
 -17 -13  -4    49.6    60.9
 -17 -13  -5    62.2    55.7
 -17 -13  -6   557.3    71.1
 -17 -13  -7   723.0    85.6
 -17 -13  -8   517.1   117.2
 -17 -13  -9   210.1   130.3
 -17 -13 -10   630.7   180.3
 -17 -13 -11   323.0   281.6
 -17 -12  -1  2745.5    54.4
 -17 -12  -2   -61.5    44.0
 -17 -12  -3    68.1    46.4
 -17 -12  -4   514.3    54.5
 -17 -12  -5   573.7    51.5
 -17 -12  -6    74.4    57.2
 -17 -12  -7    96.6    65.0
 -17 -12  -8   793.5    97.5
 -17 -12  -9  3705.6   143.2
 -17 -12 -10  3278.1   166.6
 -17 -12 -11   787.2   211.8
 -17 -11  -1   298.8    32.3
 -17 -11  -2    25.4    34.0
 -17 -11  -3  8152.3   121.2
 -17 -11  -4   465.5    51.7
 -17 -11  -5   102.5    46.4
 -17 -11  -6   264.9    50.7
 -17 -11  -7   968.1    61.7
 -17 -11  -8   156.1    74.7
 -17 -11  -9   594.0   106.6
 -17 -11 -10   601.3   124.5
 -17 -11 -12  -586.0   328.3
 -17 -10   0    57.6    27.8
 -17 -10  -1   293.3    23.8
 -17 -10  -2  1939.8    39.7
 -17 -10  -3    32.7    31.3
 -17 -10  -4   862.4    43.1
 -17 -10  -5   270.8    40.2
 -17 -10  -6  1203.4    47.3
 -17 -10  -7    -6.9    49.9
 -17 -10  -8   362.7    64.7
 -17 -10  -9  2453.0    98.9
 -17 -10 -11  1375.1   155.1
 -17 -10 -12  2645.9   233.4
 -17  -9   0   260.0    33.0
 -17  -9  -1  4021.1    39.3
 -17  -9  -2   132.6    20.7
 -17  -9  -3   111.9    26.2
 -17  -9  -4  1023.9    39.0
 -17  -9  -5  2676.2    51.6
 -17  -9  -6    55.3    36.0
 -17  -9  -7  4530.8    68.3
 -17  -9  -8   649.0    58.9
 -17  -9  -9   852.7    85.1
 -17  -9 -10  -117.8   107.5
 -17  -9 -11   538.9   132.6
 -17  -9 -12   -22.1   196.6
 -17  -8  -1  1438.6    24.1
 -17  -8  -2    69.5    18.5
 -17  -8  -3   550.8    22.8
 -17  -8  -4   566.4    29.1
 -17  -8  -5   226.6    35.1
 -17  -8  -6   872.7    35.4
 -17  -8  -7  1590.4    51.3
 -17  -8  -8  1807.0    59.3
 -17  -8  -9  3450.8    81.8
 -17  -8 -10  3718.1   115.1
 -17  -8 -11   -98.1   129.7
 -17  -8 -12  -124.4   192.4
 -17  -8 -13  -805.9   292.8
 -17  -7   0    99.7    23.1
 -17  -7  -1  1545.7    22.0
 -17  -7  -2   387.6    16.6
 -17  -7  -3    73.3    19.3
 -17  -7  -4   246.7    23.7
 -17  -7  -5  6489.6    71.2
 -17  -7  -6   491.4    33.3
 -17  -7  -7   815.4    42.6
 -17  -7  -8   263.4    51.1
 -17  -7  -9  1212.0    62.5
 -17  -7 -10   817.5    89.0
 -17  -7 -11  3713.5   140.0
 -17  -7 -12   408.9   160.1
 -17  -7 -13  2482.3   256.1
 -17  -6   0    13.3    21.3
 -17  -6  -1  1431.8    19.7
 -17  -6  -2  2854.7    30.2
 -17  -6  -3   139.1    16.7
 -17  -6  -4  4378.2    42.4
 -17  -6  -5     7.3    23.7
 -17  -6  -6   282.1    28.6
 -17  -6  -7    66.5    31.8
 -17  -6  -8  5822.4    81.4
 -17  -6  -9   301.2    55.4
 -17  -6 -10   236.9    73.8
 -17  -6 -11   499.6   115.2
 -17  -6 -12  2075.8   155.1
 -17  -6 -13   777.8   228.2
 -17  -5  -1   877.0    17.2
 -17  -5  -2   805.7    17.2
 -17  -5  -3   397.5    16.9
 -17  -5  -4    17.3    18.6
 -17  -5  -5  2338.0    30.8
 -17  -5  -6   583.5    23.4
 -17  -5  -7    44.6    31.7
 -17  -5  -8   820.6    41.2
 -17  -5  -9   -53.7    51.4
 -17  -5 -10    50.5    69.7
 -17  -5 -11  2346.3   112.7
 -17  -5 -12   111.1   153.1
 -17  -5 -13    67.6   238.8
 -17  -4  -1   204.7    13.7
 -17  -4  -2  1333.4    18.3
 -17  -4  -3    76.8    15.5
 -17  -4  -4   794.8    19.0
 -17  -4  -5    59.1    20.4
 -17  -4  -6   961.4    23.4
 -17  -4  -7  2430.3    34.1
 -17  -4  -8  1772.4    38.4
 -17  -4  -9  1419.5    55.5
 -17  -4 -10   980.4    67.7
 -17  -4 -11     8.1    92.6
 -17  -4 -12  4459.9   174.9
 -17  -4 -13   178.2   208.9
 -17  -4 -14    15.3   339.4
 -17  -3  -1  3200.3    26.2
 -17  -3  -2    22.6    13.4
 -17  -3  -3  1473.0    20.9
 -17  -3  -4    64.0    16.0
 -17  -3  -5     7.3    19.4
 -17  -3  -6   133.3    21.1
 -17  -3  -7   986.2    27.0
 -17  -3  -8   730.0    33.4
 -17  -3  -9  1864.9    45.4
 -17  -3 -10   437.0    60.4
 -17  -3 -11  4458.0   111.2
 -17  -3 -12   -46.6   129.7
 -17  -3 -13   596.3   201.5
 -17  -3 -14   950.4   322.1
 -17  -2  -1  2371.6    21.6
 -17  -2  -2   231.7    13.3
 -17  -2  -3   254.0    15.5
 -17  -2  -4    15.7    16.4
 -17  -2  -5  1368.9    23.3
 -17  -2  -6   768.5    22.8
 -17  -2  -7  2726.5    33.7
 -17  -2  -8   354.6    32.5
 -17  -2  -9   -11.0    38.0
 -17  -2 -10  2751.7    64.8
 -17  -2 -11    23.4    79.8
 -17  -2 -12   966.3   141.5
 -17  -2 -13   115.2   227.2
 -17  -1  -1   790.1    14.7
 -17  -1  -2   159.1    12.9
 -17  -1  -3   235.9    13.7
 -17  -1  -4  1298.8    20.1
 -17  -1  -5    79.1    17.4
 -17  -1  -6    76.3    20.2
 -17  -1  -7  3353.2    36.1
 -17  -1  -8  2153.2    49.3
 -17  -1  -9   519.8    40.2
 -17  -1 -10    54.6    50.3
 -17  -1 -11   254.1    72.8
 -17  -1 -12   860.7   117.9
 -17  -1 -13   262.8   157.8
 -17  -1 -14   728.3   299.4
 -17   0  -1   670.8    13.8
 -17   0  -2   761.5    14.7
 -17   0  -3   478.2    22.9
 -17   0  -4  1511.0    21.1
 -17   0  -5   174.5    21.4
 -17   0  -6    60.9    19.9
 -17   0  -7  2136.5    59.4
 -17   0  -8   210.9    29.9
 -17   0  -9   837.3    70.4
 -17   0 -10  5790.5    87.2
 -17   0 -12  1285.8   139.6
 -17   1  -1   378.7    13.9
 -17   1  -2   728.5    14.7
 -17   1  -3  1129.6    17.5
 -17   1  -4   178.7    15.4
 -17   1  -5    -7.0    19.3
 -17   1  -6   337.1    19.9
 -17   1  -7    63.1    22.0
 -17   1  -8   718.0    29.3
 -17   1  -9   696.0    38.5
 -17   1 -10  1253.2    59.9
 -17   1 -11  4494.3    99.6
 -17   1 -12    62.3   133.9
 -17   1 -13   949.1   203.2
 -17   2  -1  6980.9    41.8
 -17   2  -2  2359.6    22.9
 -17   2  -3    31.6    14.0
 -17   2  -4    76.4    15.7
 -17   2  -5   114.7    18.4
 -17   2  -6   210.8    20.6
 -17   2  -7   807.9    26.6
 -17   2  -8   109.9    29.6
 -17   2  -9  4862.6    63.1
 -17   2 -10   436.5    55.6
 -17   2 -11  1416.0    85.9
 -17   2 -12  4263.1   145.6
 -17   2 -13   -77.2   189.7
 -17   2 -14   476.4   301.6
 -17   3  -1   690.5    15.2
 -17   3  -2    53.3    13.0
 -17   3  -3  5961.0    51.5
 -17   3  -4     2.1    18.2
 -17   3  -5   153.5    19.0
 -17   3  -6  2684.2    30.4
 -17   3  -7  5515.1    49.7
 -17   3  -8    32.7    29.7
 -17   3  -9   -40.2    47.4
 -17   3 -10   545.8    63.4
 -17   3 -11    34.9    86.8
 -17   3 -12     0.8   124.3
 -17   3 -13   508.9   191.3
 -17   3 -14  2017.3   320.0
 -17   4  -1   261.2    13.6
 -17   4  -2   904.0    17.3
 -17   4  -3   954.9    18.0
 -17   4  -4   129.0    18.4
 -17   4  -5   467.5    20.7
 -17   4  -6  1101.9    24.0
 -17   4  -7    59.0    28.7
 -17   4  -8   854.2    41.7
 -17   4  -9  9441.7   118.3
 -17   4 -10  1098.3    67.7
 -17   4 -11   664.3    99.6
 -17   4 -12   910.1   145.9
 -17   4 -13   346.9   226.5
 -17   5  -1   177.3    14.4
 -17   5  -2    -0.8    14.1
 -17   5  -3   178.5    16.5
 -17   5  -4   317.3    18.8
 -17   5  -5  1254.3    26.3
 -17   5  -6    79.9    25.1
 -17   5  -7  1041.6    33.4
 -17   5  -8   -32.7    43.2
 -17   5  -9   580.7    52.3
 -17   5 -10   871.2    72.5
 -17   5 -11  1828.0   109.2
 -17   5 -12   907.4   147.8
 -17   5 -13  1589.8   209.1
 -17   6   0    26.0    21.2
 -17   6  -1  3885.9    31.4
 -17   6  -2   843.2    18.0
 -17   6  -3   777.2    20.7
 -17   6  -4  7704.9    63.4
 -17   6  -5   130.8    28.7
 -17   6  -6   208.3    28.5
 -17   6  -7   492.2    38.9
 -17   6  -8   235.8    47.4
 -17   6  -9    -3.2    54.3
 -17   6 -10   183.0    78.6
 -17   6 -11  1408.9   112.9
 -17   6 -12  1740.9   150.1
 -17   6 -13  1568.4   222.7
 -17   6 -14  2722.7   393.1
 -17   7   0    90.0    26.1
 -17   7  -1  2211.1    25.3
 -17   7  -2   845.1    20.5
 -17   7  -3   281.2    21.0
 -17   7  -4   691.7    28.5
 -17   7  -5  4876.6    64.6
 -17   7  -6   400.9    30.9
 -17   7  -7   793.3    43.2
 -17   7  -8   244.8    48.1
 -17   7  -9   -17.8    60.7
 -17   7 -10   349.6    86.3
 -17   7 -11  -237.2   116.6
 -17   7 -12  1451.6   178.4
 -17   7 -13    31.8   265.0
 -17   8  -1    35.6    17.9
 -17   8  -2    88.2    20.5
 -17   8  -3   334.6    27.2
 -17   8  -4  2171.8    45.8
 -17   8  -5   165.4    33.5
 -17   8  -6   139.2    32.5
 -17   8  -7 11637.1   117.8
 -17   8  -8  1378.1    74.5
 -17   8  -9   368.9    72.6
 -17   8 -10  1261.9   100.0
 -17   8 -11   582.0   119.9
 -17   8 -12    89.7   170.0
 -17   9  -1  2509.0    33.9
 -17   9  -2   278.9    26.3
 -17   9  -3   -69.6    31.8
 -17   9  -4    -3.0    36.8
 -17   9  -5  1351.7    41.6
 -17   9  -6   805.0    41.8
 -17   9  -7   462.6    47.7
 -17   9  -8   194.1    58.3
 -17   9  -9  1639.4   106.4
 -17   9 -10   439.0    94.9
 -17   9 -11  2023.9   142.1
 -17   9 -12   923.8   217.8
 -17   9 -13  1943.7   330.7
 -17  10   0   -25.0    31.7
 -17  10  -1  2041.7    36.9
 -17  10  -2  1773.0    41.5
 -17  10  -3  1182.7    43.9
 -17  10  -4  1093.3    44.6
 -17  10  -5    91.4    38.8
 -17  10  -6   421.3    45.5
 -17  10  -7   194.3    52.8
 -17  10  -8   -31.1    70.8
 -17  10  -9   564.8    92.3
 -17  10 -10   936.2   115.2
 -17  10 -11   339.5   172.0
 -17  10 -12   706.5   285.6
 -17  11   0   312.9    54.4
 -17  11  -1   -19.6    34.7
 -17  11  -2  1168.8    50.0
 -17  11  -3  5203.5    82.3
 -17  11  -4    41.2    48.4
 -17  11  -5  1846.5    49.3
 -17  11  -6   130.6    51.3
 -17  11  -7  1854.8    70.0
 -17  11  -8   107.3    79.9
 -17  11  -9   260.6    94.0
 -17  11 -10  1064.1   131.0
 -17  11 -12    12.0   330.7
 -17  12  -1   193.6    52.5
 -17  12  -2  3357.3    71.2
 -17  12  -3  2152.1    71.8
 -17  12  -4    31.3    54.3
 -17  12  -5  2290.4    57.6
 -17  12  -6   278.9    61.5
 -17  12  -7   224.9    73.8
 -17  12  -8   127.1    97.2
 -17  12  -9 10509.0   227.1
 -17  12 -10  2015.6   157.4
 -17  12 -11  -210.3   229.1
 -17  13  -2  1190.7    62.8
 -17  13  -3   416.8    69.5
 -17  13  -4   174.3    55.5
 -17  13  -5   180.1    64.3
 -17  13  -6   582.2    68.2
 -17  13  -7   249.6    97.4
 -17  13  -8   590.9   106.1
 -17  13  -9   107.5   137.7
 -17  13 -10  1771.8   210.3
 -17  13 -11   457.0   268.9
 -17  13 -12  -276.5   347.0
 -17  14  -2  1473.0    97.7
 -17  14  -3   -62.5    83.1
 -17  14  -4   124.1    59.0
 -17  14  -5  1100.4    83.4
 -17  14  -6  1109.6    92.5
 -17  14  -7   244.6    94.5
 -17  14  -8   -86.0   128.1
 -17  14  -9  1121.8   174.4
 -17  14 -10   233.7   248.0
 -17  15  -3  2415.3   106.6
 -17  15  -4    46.1    71.9
 -17  15  -5    49.0    88.9
 -17  15  -6   -25.6   112.4
 -17  15  -7  3970.4   160.2
 -17  15  -8  -402.1   160.7
 -17  15  -9    98.1   207.0
 -17  15 -10   129.6   316.2
 -17  16  -3   687.3   170.6
 -17  16  -4   790.1   121.5
 -17  16  -5   597.8   115.6
 -17  16  -6   823.5   130.0
 -17  16  -7  3210.6   190.9
 -17  16  -8   758.0   210.7
 -17  17  -4   186.7   119.7
 -17  17  -5   809.7   157.4
 -17  17  -6   410.9   193.5
 -17  17  -7   290.9   225.2
 -17  17  -8   111.5   276.0
 -18 -17  -5   456.4   212.0
 -18 -17  -6     5.7   263.5
 -18 -16  -5   872.1   151.1
 -18 -16  -7   675.3   200.6
 -18 -15  -4   442.6   129.7
 -18 -15  -5  1785.9   117.1
 -18 -15  -7  1136.9   165.3
 -18 -15  -8   836.3   245.1
 -18 -14  -1   471.8    89.6
 -18 -14  -3   585.4    81.5
 -18 -14  -5     2.3   103.2
 -18 -14  -7    74.9   136.9
 -18 -14  -9   538.7   247.1
 -18 -13  -1  4485.1    96.4
 -18 -13  -2   114.3    68.5
 -18 -13  -3   136.8    71.0
 -18 -13  -4   615.9    83.1
 -18 -13  -5   258.0    84.8
 -18 -13  -6   623.5    91.6
 -18 -13  -7  2345.9   122.0
 -18 -13  -8    10.8   123.0
 -18 -13  -9  1908.0   208.7
 -18 -13 -10   543.8   225.5
 -18 -13 -11   703.5   339.2
 -18 -12  -1   103.4    50.0
 -18 -12  -5  2489.5    87.3
 -18 -12  -7   533.6    83.8
 -18 -12 -11    11.7   269.3
 -18 -11   0    11.3    40.4
 -18 -11  -1  3930.4    59.9
 -18 -11  -2  1649.7    55.7
 -18 -11  -3  8666.3   115.2
 -18 -11  -4  3279.1    86.0
 -18 -11  -5   203.0    65.9
 -18 -11  -6     6.9    60.4
 -18 -11  -7   313.7    85.4
 -18 -11  -8  1308.0    99.3
 -18 -11  -9  1128.2   167.9
 -18 -11 -10    -6.5   179.3
 -18 -11 -12  -328.6   327.5
 -18 -10  -1  2895.4    43.9
 -18 -10  -3    85.3    39.4
 -18 -10  -5   101.5    58.2
 -18 -10  -7     3.5    73.9
 -18 -10  -9  3950.2   129.1
 -18 -10 -11   216.2   230.1
 -18  -9  -1   418.2    25.4
 -18  -9  -2   856.6    29.0
 -18  -9  -4  2020.3    50.0
 -18  -9  -5   -65.3    51.6
 -18  -9  -7   116.5    59.0
 -18  -9  -8   765.7    83.5
 -18  -9 -10   -48.0   139.7
 -18  -9 -11   869.5   199.0
 -18  -8  -1   375.6    23.6
 -18  -8  -3   231.7    27.7
 -18  -8  -5  2226.4    55.5
 -18  -8  -7   904.3    56.6
 -18  -8  -9   588.5    84.8
 -18  -8 -11     8.3   202.9
 -18  -8 -13   245.1   345.3
 -18  -7  -1  3838.8    37.3
 -18  -7  -2   133.7    21.6
 -18  -7  -3   529.0    23.9
 -18  -7  -4    19.7    26.4
 -18  -7  -5  2081.4    42.8
 -18  -7  -6   -44.8    42.4
 -18  -7  -7  3875.8    68.5
 -18  -7  -8   627.7    61.1
 -18  -7  -9   139.2    69.2
 -18  -7 -10    29.3   102.2
 -18  -7 -11  1801.7   168.2
 -18  -7 -12  1416.6   240.2
 -18  -7 -13   315.9   315.3
 -18  -6  -1  2101.7    26.8
 -18  -6  -5   285.8    29.1
 -18  -6  -7   349.3    43.7
 -18  -6 -11  1570.0   137.2
 -18  -6 -13    -2.2   295.4
 -18  -5  -1  3407.0    34.2
 -18  -5  -2    -1.0    18.3
 -18  -5  -3    88.5    20.9
 -18  -5  -4   461.1    25.1
 -18  -5  -5   183.9    28.7
 -18  -5  -6   156.6    29.3
 -18  -5  -7  1097.8    40.3
 -18  -5  -8  2313.2    58.1
 -18  -5  -9   783.4    75.1
 -18  -5 -10   224.3    88.7
 -18  -5 -11    69.6   136.0
 -18  -5 -12  -678.0   235.5
 -18  -5 -13  -472.5   318.5
 -18  -4  -1   499.8    17.8
 -18  -4  -3   190.2    19.5
 -18  -4  -5    59.4    25.9
 -18  -4  -7  3277.9    47.5
 -18  -4  -9    15.9    56.0
 -18  -4 -11   238.9   118.9
 -18  -4 -13   -28.9   275.3
 -18  -3  -1  3915.3    35.1
 -18  -3  -2   683.3    18.9
 -18  -3  -4   810.8    23.4
 -18  -3  -5    96.4    24.8
 -18  -3  -7    28.1    30.9
 -18  -3  -8   167.1    42.2
 -18  -3 -10  2276.5    82.7
 -18  -3 -11   628.9   111.7
 -18  -3 -13   415.9   231.2
 -18  -2  -1   388.0    15.9
 -18  -2  -3   102.3    18.2
 -18  -2  -5    53.9    23.4
 -18  -2  -7   106.5    27.2
 -18  -2  -9  4057.4    66.0
 -18  -2 -11   -55.3   110.5
 -18  -2 -13   320.5   306.3
 -18  -1   0    99.9    24.4
 -18  -1  -1   641.6    17.2
 -18  -1  -2  1025.7    19.0
 -18  -1  -3    21.3    18.0
 -18  -1  -4  2205.5    28.6
 -18  -1  -5   235.2    22.3
 -18  -1  -6  1381.4    30.9
 -18  -1  -7   234.1    28.1
 -18  -1  -8   843.1    39.2
 -18  -1  -9    40.8    47.4
 -18  -1 -10  3094.6    82.0
 -18  -1 -11   246.6    86.9
 -18  -1 -12   246.2   142.0
 -18  -1 -13   557.0   245.8
 -18   0  -1   480.4    16.0
 -18   0  -5  6116.8    67.5
 -18   0  -7    99.7    28.9
 -18   0 -11   969.6    87.7
 -18   1  -1   553.2    16.2
 -18   1  -2   859.0    19.0
 -18   1  -3  2272.5    27.4
 -18   1  -4   353.9    20.4
 -18   1  -5   433.5    24.2
 -18   1  -6   406.5    26.0
 -18   1  -7  2156.6    35.0
 -18   1  -8  9468.4    94.6
 -18   1  -9    30.1    46.2
 -18   1 -10   457.8    68.9
 -18   1 -11   -29.3   100.2
 -18   1 -12  2107.3   162.5
 -18   1 -13  -233.0   289.2
 -18   2  -1    67.5    16.3
 -18   2  -3    29.6    17.3
 -18   2  -5  1554.9    29.2
 -18   2  -7   282.2    30.1
 -18   2  -9  2175.6    58.4
 -18   2 -11   109.7   104.1
 -18   2 -13   362.7   223.9
 -18   3  -1   350.3    17.3
 -18   3  -2    67.9    16.2
 -18   3  -4   635.3    21.8
 -18   3  -5   -59.4    25.2
 -18   3  -7   514.8    31.9
 -18   3  -8    56.2    35.6
 -18   3 -10   451.8    76.2
 -18   3 -11  1283.3   114.0
 -18   3 -13   271.7   253.1
 -18   4  -1   681.4    18.1
 -18   4  -3   445.8    21.0
 -18   4  -5    82.2    25.3
 -18   4  -7  3310.5    49.2
 -18   4  -9    53.4    64.9
 -18   4 -11   -62.2   130.4
 -18   4 -13  -180.5   298.2
 -18   5  -1   178.3    17.7
 -18   5  -2    13.1    19.3
 -18   5  -3  1007.4    23.3
 -18   5  -4    41.4    24.2
 -18   5  -5   245.6    37.6
 -18   5  -6  2115.0    43.0
 -18   5  -7   625.7    38.7
 -18   5  -8   -12.8    51.9
 -18   5  -9   118.0    71.7
 -18   5 -10  1737.7    93.7
 -18   5 -11    44.5   123.1
 -18   5 -12  1295.2   202.4
 -18   5 -13  1487.9   301.9
 -18   6  -1   890.6    21.8
 -18   6  -5   229.0    31.6
 -18   6  -7   124.9    41.0
 -18   6 -11  2397.3   154.5
 -18   6 -13   563.1   276.5
 -18   7   0     7.8    31.8
 -18   7  -1   580.0    21.7
 -18   7  -2    41.7    22.6
 -18   7  -3    24.9    24.9
 -18   7  -4  1610.3    36.2
 -18   7  -5   178.6    41.4
 -18   7  -6   214.9    39.5
 -18   7  -7  3037.7    64.9
 -18   7  -8   824.8    68.7
 -18   7  -9    19.6    77.7
 -18   7 -10  1194.1   105.9
 -18   7 -11   574.7   179.1
 -18   7 -12   401.8   225.8
 -18   7 -13   280.7   309.0
 -18   8  -1   461.4    23.6
 -18   8  -3    12.5    31.6
 -18   8  -5  2133.9    59.3
 -18   8  -7   122.9    54.2
 -18   8  -9   779.3    88.6
 -18   8 -11    29.9   176.3
 -18   9  -1   512.2    29.1
 -18   9  -2  2760.9    45.1
 -18   9  -4   -28.2    51.9
 -18   9  -5  1340.3    54.9
 -18   9  -7  -105.0    66.5
 -18   9  -8  4094.9    96.5
 -18   9 -10   624.1   140.2
 -18   9 -11  -516.1   171.7
 -18  10  -1   666.7    35.6
 -18  10  -3    37.6    47.7
 -18  10  -5   389.8    57.5
 -18  10  -7    10.5    67.0
 -18  10  -9  3006.0   156.1
 -18  10 -11   237.5   224.5
 -18  11   0   113.3    57.0
 -18  11  -1   278.9    40.4
 -18  11  -2   654.4    55.7
 -18  11  -3  2363.5    71.7
 -18  11  -4  4032.4    94.4
 -18  11  -5  1521.4    69.5
 -18  11  -6   169.4    65.9
 -18  11  -7   712.3    75.6
 -18  11  -8    57.4    97.8
 -18  11  -9  1073.4   143.8
 -18  11 -10  1607.9   171.5
 -18  12  -1   407.0    55.3
 -18  12  -5   268.5    68.6
 -18  12  -7    89.1    95.4
 -18  12 -11   372.8   271.6
 -18  13  -1   788.6    89.8
 -18  13  -2   803.6    72.8
 -18  13  -3  2262.2   103.7
 -18  13  -4   923.7    91.3
 -18  13  -5   269.3    75.6
 -18  13  -6   641.1    88.8
 -18  13  -7  1118.7   119.9
 -18  13  -8  2825.4   176.0
 -18  13  -9    24.8   176.4
 -18  13 -10  -115.9   273.0
 -18  14  -3  -178.7   113.1
 -18  14  -5   254.6   104.3
 -18  14  -7    70.9   125.3
 -18  14  -9  3536.3   245.2
 -18  15  -4   876.6   117.4
 -18  15  -5  1009.2   123.4
 -18  15  -7  4080.2   226.2
 -18  15  -8   200.3   214.9
 -18  16  -5  1918.0   163.3
 -18  16  -7   593.6   235.4
 -18  17  -4  -111.2   161.1
 -18  17  -5   174.8   233.2
 -18  17  -6  3414.5   221.9
 -19 -17  -5  1883.2   255.3
 -19 -16  -5   -37.2   191.3
 -19 -16  -6   336.0   241.0
 -19 -16  -7   309.3   290.2
 -19 -15  -3    72.7   132.3
 -19 -15  -6  -228.7   174.7
 -19 -15  -7  1353.4   250.0
 -19 -15  -8    18.3   296.8
 -19 -14  -1   375.0    96.0
 -19 -14  -3  3297.3   149.7
 -19 -14  -5   169.8   139.0
 -19 -14  -6  3148.0   182.4
 -19 -14  -7  3115.9   200.8
 -19 -14  -8  1250.0   237.8
 -19 -14  -9  -625.6   287.0
 -19 -13  -1  -120.2    81.6
 -19 -13  -2  2401.7   105.9
 -19 -13  -3  4122.3   140.0
 -19 -13  -4   364.0   117.7
 -19 -13  -5  2394.3   132.2
 -19 -13  -6   374.2   120.4
 -19 -13  -7  1233.3   137.5
 -19 -13  -8  -406.7   167.2
 -19 -13  -9  -305.7   276.3
 -19 -12  -1    49.7    56.9
 -19 -12  -2   316.1    82.2
 -19 -12  -3   559.9    77.9
 -19 -12  -4   392.9    97.1
 -19 -12  -5    -6.2   106.4
 -19 -12  -6   330.0    95.4
 -19 -12  -7  4033.9   148.0
 -19 -12  -8  2191.0   158.3
 -19 -12  -9   618.8   193.4
 -19 -12 -10   443.5   304.8
 -19 -11  -1   174.2    43.5
 -19 -11  -2   120.2    52.7
 -19 -11  -3   579.2    61.2
 -19 -11  -4   321.1    69.3
 -19 -11  -5    57.3    90.2
 -19 -11  -6   155.4    86.8
 -19 -11  -7  -101.3   116.0
 -19 -11  -8   178.6   123.8
 -19 -11  -9   364.7   163.2
 -19 -11 -10   704.2   222.5
 -19 -10  -1  3047.9    53.4
 -19 -10  -2  1282.8    43.0
 -19 -10  -3   -53.3    50.5
 -19 -10  -4   552.3    57.9
 -19 -10  -6    67.9    85.8
 -19 -10  -7  1198.4    94.0
 -19 -10  -8  3108.5   126.5
 -19 -10  -9  1037.1   142.3
 -19 -10 -10   921.7   257.5
 -19 -10 -11   663.4   305.7
 -19  -9  -1    96.4    33.8
 -19  -9  -2   357.1    33.9
 -19  -9  -3  2027.3    48.9
 -19  -9  -4   130.5    45.4
 -19  -9  -5 10939.0   168.5
 -19  -9  -6   -67.7    74.8
 -19  -9  -7    54.5    71.8
 -19  -9  -8   476.6   110.3
 -19  -9 -11   169.7   274.4
 -19  -8   0    57.8    38.2
 -19  -8  -1   137.4    27.5
 -19  -8  -2     6.7    30.8
 -19  -8  -3   376.9    32.7
 -19  -8  -4  2908.5    53.3
 -19  -8  -5  1254.9    56.2
 -19  -8  -6  2101.2    77.5
 -19  -8  -7    25.0    75.0
 -19  -8  -8   860.8   104.4
 -19  -8  -9  2727.6   137.2
 -19  -8 -10  1376.9   148.6
 -19  -8 -11  1167.9   245.8
 -19  -8 -12  -928.0   345.8
 -19  -7   0   247.3    38.4
 -19  -7  -1     2.3    24.4
 -19  -7  -2   379.3    30.3
 -19  -7  -3    94.4    29.0
 -19  -7  -4     3.6    33.3
 -19  -7  -5   749.1    42.3
 -19  -7  -6   209.2    59.6
 -19  -7  -8   160.2    73.3
 -19  -7  -9   231.8   113.0
 -19  -7 -10  -369.7   133.0
 -19  -7 -11  1240.9   197.0
 -19  -7 -12   437.7   318.4
 -19  -6   0    20.9    33.9
 -19  -6  -1   839.7    24.7
 -19  -6  -2    21.8    24.5
 -19  -6  -3   867.9    29.5
 -19  -6  -4  2338.3    44.3
 -19  -6  -5   150.1    36.6
 -19  -6  -6  2166.6    54.1
 -19  -6  -7   415.8    52.4
 -19  -6  -8   497.6    71.5
 -19  -6  -9  3122.1   119.4
 -19  -6 -10   832.4   125.9
 -19  -6 -11    94.2   179.6
 -19  -6 -12   -21.2   260.3
 -19  -5  -1    77.7    23.1
 -19  -5  -2  1227.5    26.0
 -19  -5  -3 11113.4    93.5
 -19  -5  -4   202.8    28.9
 -19  -5  -5   421.6    38.4
 -19  -5  -6    57.4    39.2
 -19  -5  -7  5113.6    71.7
 -19  -5  -8   234.6    61.9
 -19  -5  -9    61.2    85.6
 -19  -5 -10   298.3   131.8
 -19  -5 -11  1028.2   186.3
 -19  -4   0    29.0    42.0
 -19  -4  -1    40.8    21.6
 -19  -4  -2   817.5    23.1
 -19  -4  -3    58.2    24.3
 -19  -4  -4   968.6    31.2
 -19  -4  -5   351.2    34.8
 -19  -4  -6  1528.3    42.3
 -19  -4  -7  3621.9    56.5
 -19  -4  -8   297.6    52.0
 -19  -4  -9    32.2    74.5
 -19  -4 -10   242.6   120.6
 -19  -4 -11   731.7   162.8
 -19  -4 -12   160.4   240.7
 -19  -4 -13  -251.4   366.0
 -19  -3  -1   292.3    19.2
 -19  -3  -2    34.6    21.5
 -19  -3  -3   337.7    32.0
 -19  -3  -4    -3.1    26.4
 -19  -3  -5   904.1    31.4
 -19  -3  -6  1147.8    41.6
 -19  -3  -7  1651.5    46.3
 -19  -3  -8   388.1    52.4
 -19  -3  -9   360.9    70.3
 -19  -3 -10    45.2    91.4
 -19  -3 -11    87.3   140.8
 -19  -3 -12   159.9   231.9
 -19  -2   0   378.0    37.0
 -19  -2  -1  1813.6    26.5
 -19  -2  -2  4702.3    45.6
 -19  -2  -3  1854.1    29.8
 -19  -2  -4   504.8    26.6
 -19  -2  -5    85.2    28.4
 -19  -2  -6   248.9    37.0
 -19  -2  -7  2391.4    47.3
 -19  -2  -8  2502.8    56.3
 -19  -2  -9   396.2    66.4
 -19  -2 -10   398.0    87.0
 -19  -2 -11  1253.0   134.0
 -19  -2 -12  -412.3   216.6
 -19  -1  -1   622.9    21.1
 -19  -1  -2   853.2    22.5
 -19  -1  -3   205.8    23.2
 -19  -1  -4   769.6    27.0
 -19  -1  -5 10467.8    93.2
 -19  -1  -6    63.8    32.7
 -19  -1  -7   228.9    40.2
 -19  -1  -8   -54.6    48.0
 -19  -1  -9     8.0    67.8
 -19  -1 -10   162.5    91.0
 -19  -1 -11    60.9   132.5
 -19  -1 -12   180.8   186.8
 -19  -1 -13  1005.5   360.5
 -19   0  -1    16.3    18.7
 -19   0  -2    56.9    20.9
 -19   0  -4  3968.8    82.1
 -19   0  -5   552.0    56.7
 -19   0  -6  1231.5    47.0
 -19   0  -7  1129.2    42.7
 -19   0  -8  1530.0    60.4
 -19   0  -9   789.0    64.6
 -19   1  -1   149.9    18.8
 -19   1  -2    -2.5    20.9
 -19   1  -3   167.6    22.4
 -19   1  -4   162.0    25.2
 -19   1  -5  1349.6    31.7
 -19   1  -6   550.4    36.2
 -19   1  -7   938.5    39.9
 -19   1  -8   159.6    45.1
 -19   1  -9  1214.6    62.4
 -19   1 -10   135.8    78.2
 -19   1 -11   245.9   141.9
 -19   1 -12  -650.8   202.6
 -19   2  -1  2092.6    27.2
 -19   2  -2  3253.3    35.5
 -19   2  -3  2332.0    32.5
 -19   2  -4   417.5    26.6
 -19   2  -5    17.4    28.6
 -19   2  -6  1085.4    39.8
 -19   2  -7   198.4    38.8
 -19   2  -8   822.4    50.3
 -19   2  -9  1254.5    68.7
 -19   2 -10   266.3    85.6
 -19   2 -11  -102.7   133.7
 -19   2 -12  1184.1   219.1
 -19   3  -1   273.8    21.4
 -19   3  -2   120.5    20.5
 -19   3  -3  3047.7    38.8
 -19   3  -4   377.2    26.2
 -19   3  -5  1678.7    38.4
 -19   3  -6   153.0    35.6
 -19   3  -7   947.4    42.2
 -19   3  -8    84.6    47.6
 -19   3  -9    57.7    67.1
 -19   3 -10   236.2   108.3
 -19   3 -11   451.4   146.9
 -19   3 -12   262.7   223.0
 -19   3 -13   113.4   336.4
 -19   4  -1    15.7    20.4
 -19   4  -2  2513.4    32.6
 -19   4  -3   -65.0    24.6
 -19   4  -4   387.2    27.8
 -19   4  -5  1022.0    37.3
 -19   4  -6  4005.0    58.7
 -19   4  -7  1868.5    46.4
 -19   4  -8   -22.3    57.1
 -19   4  -9    72.6    78.5
 -19   4 -10   321.4   119.0
 -19   4 -11   143.2   173.1
 -19   4 -12  2218.2   278.2
 -19   5  -1  1400.8    27.3
 -19   5  -2  1093.6    27.9
 -19   5  -3   549.4    26.8
 -19   5  -4   843.3    34.0
 -19   5  -5  1577.6    44.4
 -19   5  -6  1212.9    49.8
 -19   5  -7   616.8    50.1
 -19   5  -8    67.4    64.8
 -19   5  -9  1001.0    97.7
 -19   5 -10    28.3   115.0
 -19   5 -11  3781.3   184.7
 -19   5 -12   337.3   236.9
 -19   6   0   -14.7    37.6
 -19   6  -1  2412.4    35.4
 -19   6  -2    83.0    24.5
 -19   6  -3  2073.0    37.5
 -19   6  -4  7534.0    73.7
 -19   6  -5    77.1    40.8
 -19   6  -6   742.5    57.0
 -19   6  -7  1114.1    55.0
 -19   6  -8   425.4    68.9
 -19   6  -9    71.1   103.9
 -19   6 -10   217.7   123.5
 -19   6 -11  -197.1   173.4
 -19   6 -12   144.3   288.3
 -19   7  -1    30.8    25.4
 -19   7  -2  1023.8    32.7
 -19   7  -3  1325.3    36.3
 -19   7  -4    74.1    38.0
 -19   7  -5    40.0    47.4
 -19   7  -6   136.3    60.4
 -19   7  -8  -107.3    87.0
 -19   7  -9   232.3   113.1
 -19   7 -10  -117.3   134.1
 -19   7 -11   307.8   239.6
 -19   7 -12    35.9   301.6
 -19   8  -1   145.7    28.7
 -19   8  -2    -6.8    32.8
 -19   8  -3   267.7    37.0
 -19   8  -4  7489.1   116.2
 -19   8  -5  2342.6    80.2
 -19   8  -6   597.5    62.3
 -19   8  -7   215.3    65.7
 -19   8  -8   717.4    99.1
 -19   8  -9  1463.1   117.3
 -19   8 -10   382.5   154.2
 -19   8 -11  2283.1   238.2
 -19   8 -12  -414.4   286.7
 -19   9  -1   709.8    38.1
 -19   9  -2   734.3    37.1
 -19   9  -3    86.6    51.0
 -19   9  -4  1686.2    68.2
 -19   9  -5  6690.2   142.8
 -19   9  -6   308.6    66.7
 -19   9  -7  3520.8   100.0
 -19   9  -8   159.5    97.1
 -19   9 -10  1298.1   193.2
 -19   9 -11    -1.6   260.4
 -19   9 -12  -730.0   334.8
 -19  10  -1  3342.5    56.2
 -19  10  -2  4680.7    73.9
 -19  10  -3   948.1    64.5
 -19  10  -4   197.3    67.6
 -19  10  -5   384.4   129.6
 -19  10  -6   414.4    71.2
 -19  10  -7   261.6   101.1
 -19  10  -8   976.1   115.6
 -19  10  -9   -33.0   145.8
 -19  10 -11   961.8   302.5
 -19  11   0   214.7    62.9
 -19  11  -1    20.8    50.4
 -19  11  -2    16.7    65.5
 -19  11  -3    52.5    73.4
 -19  11  -4   746.3    83.5
 -19  11  -5  2764.1   104.5
 -19  11  -6   196.4    80.7
 -19  11  -7  -114.7   106.4
 -19  11  -8   290.5   131.4
 -19  11  -9  -297.7   190.0
 -19  11 -10    38.8   250.1
 -19  12   0   371.6    92.5
 -19  12  -1   630.5    71.9
 -19  12  -2   557.8    89.3
 -19  12  -3   174.0    75.2
 -19  12  -4   814.4    99.0
 -19  12  -5   125.1    98.8
 -19  12  -6  2432.6   134.4
 -19  12  -8  -181.4   141.1
 -19  12  -9   200.6   225.1
 -19  12 -10  -371.8   300.2
 -19  12 -11   313.1   378.3
 -19  13  -1   549.4    90.6
 -19  13  -3   429.1    96.3
 -19  13  -4  1764.0   124.4
 -19  13  -5   773.2   127.4
 -19  13  -6  2969.6   130.7
 -19  13  -7   121.8   154.6
 -19  13  -8  -222.7   188.5
 -19  13  -9  -163.9   275.2
 -19  13 -10   486.7   300.7
 -19  14  -2   556.6   118.8
 -19  14  -4   520.5   154.3
 -19  14  -5    38.0   119.6
 -19  14  -6  -231.6   147.2
 -19  14  -7   373.7   196.6
 -19  14  -8   -37.0   279.2
 -19  15  -4   527.7   155.8
 -19  15  -5  -182.2   160.9
 -19  15  -6   322.4   220.4
 -19  15  -7   724.9   217.5
 -19  16  -5  1661.7   223.2
 -20 -14  -7    83.3   236.8
 -20 -14  -9   469.8   371.2
 -20 -13  -1  1800.4   119.0
 -20 -13  -3  1752.0   130.1
 -20 -13  -4  2006.5   145.2
 -20 -13  -6   144.7   179.7
 -20 -13  -7   961.4   213.1
 -20 -13  -8   108.2   225.6
 -20 -13  -9  3803.2   344.6
 -20 -12  -1   385.8    71.4
 -20 -12  -3   323.7    95.0
 -20 -12  -5   391.1   145.8
 -20 -12  -7   191.7   173.8
 -20 -12  -9   356.3   273.8
 -20 -11  -1   668.6    58.7
 -20 -11  -2   536.7    61.7
 -20 -11  -3   -66.1    85.9
 -20 -11  -4   643.4    93.0
 -20 -11  -5  1134.6   125.0
 -20 -11  -6    38.0   144.9
 -20 -11  -7   413.5   140.7
 -20 -11  -8     5.7   200.6
 -20 -11  -9  -220.5   197.1
 -20 -10  -1   275.1    51.7
 -20 -10  -3   293.8    61.6
 -20 -10  -7    10.4   112.5
 -20 -10  -9   698.6   185.1
 -20  -9  -1    23.7    39.6
 -20  -9  -2   183.9    42.7
 -20  -9  -3  2085.1    56.6
 -20  -9  -4   598.5    66.9
 -20  -9  -5  1843.9    83.3
 -20  -9  -6   347.3   107.0
 -20  -9  -7  5291.5   139.4
 -20  -9  -8   533.5   150.1
 -20  -9 -10  2296.7   234.0
 -20  -9 -11   668.7   311.1
 -20  -8  -1   552.2    36.8
 -20  -8  -3   187.6    43.0
 -20  -8  -5    85.0    58.6
 -20  -8  -7   328.5   100.8
 -20  -8  -9    56.7   154.3
 -20  -8 -11  -624.1   284.1
 -20  -7   0   -24.4    49.5
 -20  -7  -1    73.4    31.5
 -20  -7  -2   182.2    38.8
 -20  -7  -3  1063.1    40.8
 -20  -7  -4   -29.6    43.4
 -20  -7  -5   -91.6    56.3
 -20  -7  -6   171.2    67.6
 -20  -7  -7   362.5    93.7
 -20  -7  -8  1329.0   109.2
 -20  -7  -9    86.7   156.7
 -20  -7 -10   708.5   213.1
 -20  -7 -11   468.0   265.2
 -20  -7 -12   108.0   389.0
 -20  -6  -1    24.3    30.1
 -20  -6  -3   116.1    35.4
 -20  -6  -5   -26.9    47.0
 -20  -6  -7   280.2    71.0
 -20  -6  -9  2816.9   141.1
 -20  -6 -11    71.8   233.5
 -20  -5  -1   689.7    30.9
 -20  -5  -2   275.8    28.4
 -20  -5  -3  1016.3    36.9
 -20  -5  -4  1310.9    40.7
 -20  -5  -6   206.4    57.4
 -20  -5  -7   942.3    65.8
 -20  -5  -8   243.0    77.3
 -20  -5  -9  2367.5   113.9
 -20  -5 -11   108.2   219.8
 -20  -5 -12   273.8   340.4
 -20  -4  -1   288.9    28.2
 -20  -4  -3    32.5    31.3
 -20  -4  -5   738.6    44.8
 -20  -4  -7   271.2    58.7
 -20  -4  -9   313.9    97.2
 -20  -4 -11  -344.9   248.4
 -20  -3  -1   477.0    24.9
 -20  -3  -2   474.1    29.5
 -20  -3  -3   950.2    54.6
 -20  -3  -4    46.9    33.4
 -20  -3  -5  2270.2    46.1
 -20  -3  -6  1263.5    53.9
 -20  -3  -7   -57.6    55.6
 -20  -3  -8   -71.8    66.3
 -20  -3  -9   209.7    99.6
 -20  -3 -10   817.9   125.1
 -20  -3 -11   365.7   177.0
 -20  -3 -12  1018.5   326.3
 -20  -2  -1  2671.0    37.7
 -20  -2  -3   330.2    29.4
 -20  -2  -5   316.7    39.0
 -20  -2  -7   191.8    56.1
 -20  -2  -9   135.3    88.7
 -20  -2 -11  1137.1   207.1
 -20  -1  -1  1299.6    30.1
 -20  -1  -2   251.3    24.6
 -20  -1  -3  1316.4    33.6
 -20  -1  -4   916.3    33.4
 -20  -1  -5   192.3    40.2
 -20  -1  -6   315.5    43.6
 -20  -1  -7   585.9    57.9
 -20  -1  -8    40.5    58.9
 -20  -1  -9  1824.0    90.4
 -20  -1 -10   220.9   113.5
 -20  -1 -11   121.5   181.2
 -20  -1 -12   317.2   256.1
 -20   0  -1   432.1    25.0
 -20   0  -3  1981.3    72.4
 -20   0  -7  1644.5    62.4
 -20   0  -9   665.7   125.1
 -20   1  -1   248.5    24.6
 -20   1  -2   201.2    27.3
 -20   1  -3  1351.6    31.1
 -20   1  -4   149.6    34.5
 -20   1  -5   159.1    35.5
 -20   1  -6   577.4    51.1
 -20   1  -7    59.0    51.4
 -20   1  -8   294.6    64.1
 -20   1  -9   554.0    84.4
 -20   1 -10   122.7   110.9
 -20   1 -11  1134.5   178.3
 -20   1 -12   701.4   318.7
 -20   2  -1   850.6    25.9
 -20   2  -3  1894.8    34.8
 -20   2  -5   801.1    38.9
 -20   2  -7   895.9    54.7
 -20   2  -9   176.3    87.0
 -20   2 -11  1049.0   169.7
 -20   3  -1    54.4    27.1
 -20   3  -2    80.1    25.8
 -20   3  -3  2961.5    44.9
 -20   3  -4  1335.3    36.9
 -20   3  -5   890.8    44.3
 -20   3  -6   294.1    47.4
 -20   3  -7  1631.0    60.7
 -20   3  -8   205.7    67.4
 -20   3  -9   -27.9    83.9
 -20   3 -10  2315.4   137.4
 -20   3 -11   -82.5   231.8
 -20   3 -12   473.7   313.5
 -20   4  -1   -14.2    27.2
 -20   4  -3   249.7    35.4
 -20   4  -5  1249.5    45.3
 -20   4  -7   408.3    56.9
 -20   4  -9    60.6    94.1
 -20   4 -11  -373.7   203.1
 -20   5  -1  1545.0    34.3
 -20   5  -2  2112.5    40.1
 -20   5  -3   491.0    33.5
 -20   5  -4    69.6    41.3
 -20   5  -6   -15.1    54.3
 -20   5  -7   524.7    71.4
 -20   5  -8  5248.9   117.9
 -20   5  -9   -12.2   118.3
 -20   5 -11    21.1   218.9
 -20   5 -12  -583.2   324.7
 -20   6  -1   186.9    31.6
 -20   6  -3   163.2    35.5
 -20   6  -5  3304.5    67.9
 -20   6  -7   466.8    83.7
 -20   6  -9  2682.6   152.8
 -20   6 -11   -26.9   234.4
 -20   7   0    41.7    49.4
 -20   7  -1   599.9    37.0
 -20   7  -2   393.4    38.2
 -20   7  -3   758.9    40.8
 -20   7  -4  2810.6    59.7
 -20   7  -5   174.1    62.2
 -20   7  -6   110.3    87.2
 -20   7  -7   648.0    86.1
 -20   7  -8   108.6   108.3
 -20   7  -9   944.1   158.3
 -20   7 -10  1364.6   168.5
 -20   7 -11   163.6   256.1
 -20   8  -1   158.8    37.6
 -20   8  -3   526.8    49.1
 -20   8  -5    67.6    74.9
 -20   8  -7   -23.0    86.9
 -20   8  -9   220.4   175.2
 -20   8 -11   -86.0   287.3
 -20   9  -1   101.9    46.9
 -20   9  -2   -51.5    45.2
 -20   9  -3   343.5    55.6
 -20   9  -4    74.3    73.7
 -20   9  -5   -52.9    99.3
 -20   9  -6  3924.1   124.9
 -20   9  -7  1092.1   100.6
 -20   9  -8   165.0   134.5
 -20   9 -10  2188.2   246.4
 -20  10  -1  1490.0    62.6
 -20  10  -3    35.0    78.3
 -20  10  -7   614.1   140.0
 -20  10  -9   772.4   202.4
 -20  11  -1    91.9    68.6
 -20  11  -2   282.7    73.8
 -20  11  -3   636.1    98.6
 -20  11  -4   -36.8   103.4
 -20  11  -5   550.5   119.5
 -20  11  -6   383.5   130.6
 -20  11  -7   505.8   150.1
 -20  11  -8  1208.4   181.0
 -20  11  -9   273.7   242.9
 -20  12  -1  1111.2    89.1
 -20  12  -3  -127.8   119.2
 -20  12  -5   283.3   140.9
 -20  12  -7   556.0   177.4
 -20  12  -9   347.1   283.0
 -20  13  -1  1005.0   126.0
 -20  13  -3    -1.9   122.3
 -20  13  -5    15.7   168.6
 -20  13  -6    13.5   186.9
 -20  13  -7   475.6   219.3
 -20  13  -8  5693.0   316.0
 -20  14  -7   211.8   269.7
 -21 -13   0  1571.0   142.9
 -21 -13  -1   112.0   121.0
 -21 -13  -2   -73.6   145.1
 -21 -13  -7   324.4   265.4
 -21 -12  -1   479.3    95.8
 -21 -12  -2  2457.4   113.0
 -21 -12  -4  1228.1   148.3
 -21 -11  -1   -33.0    74.2
 -21 -11  -2    56.1    80.9
 -21 -11  -3    -6.7   109.9
 -21 -11  -4   212.1   116.8
 -21 -11  -7  2823.8   212.5
 -21 -11  -8  -134.1   267.4
 -21 -10  -1   -14.4    60.5
 -21 -10  -2   275.9    66.5
 -21 -10  -3  1377.9    78.8
 -21 -10  -4   116.0   102.4
 -21 -10  -5    17.3   117.7
 -21 -10  -7  2223.0   213.3
 -21 -10  -8   289.5   191.1
 -21 -10  -9   520.2   325.8
 -21  -9  -1   759.3    55.0
 -21  -9  -2  1910.8    69.8
 -21  -9  -4   464.9    77.1
 -21  -9  -5   -34.5    92.0
 -21  -9  -7  -147.2   171.7
 -21  -9  -8   775.4   187.9
 -21  -9 -10  1425.9   377.4
 -21  -8  -1   130.6    46.5
 -21  -8  -2   -16.7    51.8
 -21  -8  -3  2223.1    65.0
 -21  -8  -4     3.6    66.0
 -21  -8  -5  1328.8    92.3
 -21  -8  -6    75.8   103.5
 -21  -8  -7  4797.6   180.5
 -21  -8  -8  3007.8   206.1
 -21  -8  -9   661.2   215.9
 -21  -8 -10   220.0   287.8
 -21  -7  -1   124.4    41.2
 -21  -7  -2   -24.9    50.4
 -21  -7  -3  3650.1    73.1
 -21  -7  -4   143.3    56.7
 -21  -7  -5  1628.5    80.5
 -21  -7  -6  1556.5    86.4
 -21  -7  -8    47.2   142.7
 -21  -7  -9  1474.9   195.6
 -21  -6  -1   515.5    43.5
 -21  -6  -2    40.0    39.7
 -21  -6  -4    28.7    51.4
 -21  -6  -5   295.3    62.0
 -21  -6  -7   657.0    97.9
 -21  -6  -8   765.7   127.6
 -21  -6 -10  -155.6   285.9
 -21  -5  -1   -88.2    38.5
 -21  -5  -2   273.8    37.7
 -21  -5  -3   -97.0    44.1
 -21  -5  -4  1591.1    57.1
 -21  -5  -5  1159.3    60.1
 -21  -5  -6   -44.0    74.7
 -21  -5  -7    16.8    80.0
 -21  -5  -8    79.1   109.2
 -21  -5  -9    24.7   136.3
 -21  -5 -10   187.0   205.1
 -21  -5 -11   437.7   370.8
 -21  -4  -1   350.9    37.1
 -21  -4  -2    88.0    36.3
 -21  -4  -3    93.4    40.8
 -21  -4  -4  4368.1   125.9
 -21  -4  -5   498.7    52.4
 -21  -4  -6  1270.6    73.1
 -21  -4  -7  1031.5    90.8
 -21  -4  -8    80.8    98.8
 -21  -4  -9  1023.5   137.2
 -21  -4 -10   833.6   199.9
 -21  -4 -11  -475.8   287.4
 -21  -3  -1   559.5    32.2
 -21  -3  -2   688.6    38.5
 -21  -3  -4   526.2    48.9
 -21  -3  -5  1694.9    59.3
 -21  -3  -7    26.9    81.1
 -21  -3  -8  1567.2    95.7
 -21  -3 -10  -104.4   180.5
 -21  -3 -11  2289.1   260.1
 -21  -2  -1  2185.0    43.3
 -21  -2  -2   457.9    38.1
 -21  -2  -3  1932.0    45.2
 -21  -2  -4   361.4    43.4
 -21  -2  -5   388.7    51.0
 -21  -2  -6   171.4    57.1
 -21  -2  -7    79.5    78.7
 -21  -2  -8    68.2    78.1
 -21  -2  -9   461.6   111.5
 -21  -2 -10  1012.8   173.7
 -21  -2 -11   584.8   216.2
 -21  -1  -1  2475.9    47.0
 -21  -1  -2  1073.5    35.3
 -21  -1  -3  1520.4    45.0
 -21  -1  -4     9.8    39.7
 -21  -1  -5  1795.5    60.9
 -21  -1  -6  1777.1    63.1
 -21  -1  -7    -6.1    75.4
 -21  -1  -8    58.6    80.1
 -21  -1  -9   140.2   115.1
 -21  -1 -10  -113.7   176.9
 -21  -1 -11  1297.6   266.7
 -21   0  -1   355.2    44.0
 -21   0  -2  2909.3    47.8
 -21   0  -4   373.7    46.0
 -21   0  -8   513.5    90.5
 -21   0 -10  1093.1   181.5
 -21   0 -11   772.1   260.0
 -21   1  -1   907.7    74.2
 -21   1  -2    18.4    35.0
 -21   1  -3    73.0    34.1
 -21   1  -4   138.7    44.6
 -21   1  -5  3939.3    65.6
 -21   1  -6   943.7    63.6
 -21   1  -7   861.4    76.9
 -21   1  -8   407.1    81.0
 -21   1  -9   301.3   107.8
 -21   1 -10   212.1   151.7
 -21   1 -11   711.7   212.6
 -21   2  -1   707.6    32.7
 -21   2  -2   810.7    40.4
 -21   2  -3  5527.3    66.7
 -21   2  -4   195.2    46.6
 -21   2  -5   797.9    50.1
 -21   2  -6   441.0    63.1
 -21   2  -7  4740.3   100.0
 -21   2  -8    11.9    87.4
 -21   2  -9  2358.5   137.9
 -21   2 -10  1462.0   173.6
 -21   2 -11   -77.4   265.9
 -21   3  -1   199.0    36.6
 -21   3  -2   184.4    33.7
 -21   3  -4  3909.6    62.3
 -21   3  -5   906.4    53.2
 -21   3  -7   154.5    76.1
 -21   3  -8   135.3    94.4
 -21   3 -10  2259.7   191.5
 -21   3 -11  -130.0   290.1
 -21   4  -1   434.6    39.2
 -21   4  -2  1092.1    39.4
 -21   4  -3   445.3    47.0
 -21   4  -4  1424.5    50.5
 -21   4  -5   991.0    60.4
 -21   4  -6   -68.8    65.4
 -21   4  -7  6325.4   141.4
 -21   4  -8    67.9   100.5
 -21   4  -9   775.8   124.9
 -21   4 -10   231.0   186.2
 -21   5  -1  4548.5    62.1
 -21   5  -2    -0.1    38.1
 -21   5  -3  1184.5    49.3
 -21   5  -4   302.7    50.0
 -21   5  -5  2110.3    73.7
 -21   5  -6   164.2    72.7
 -21   5  -7   732.3    98.6
 -21   5  -8   256.6   119.4
 -21   5  -9   602.7   159.2
 -21   5 -10  -159.6   251.2
 -21   6  -1  2722.5    53.4
 -21   6  -2     1.6    47.2
 -21   6  -4  4336.9    76.4
 -21   6  -5    -6.4    63.5
 -21   6  -7   886.1   117.8
 -21   6  -8  1309.5   126.8
 -21   6 -10   455.8   266.1
 -21   6 -11  -165.2   328.0
 -21   7  -1  2067.1    55.2
 -21   7  -2   -82.7    48.0
 -21   7  -3  2742.8    62.9
 -21   7  -4    32.8    66.7
 -21   7  -5  1191.2    76.2
 -21   7  -6   936.9   111.2
 -21   7  -8   495.1   133.3
 -21   7  -9   801.7   196.0
 -21   7 -10   849.2   258.4
 -21   7 -11   -56.5   356.9
 -21   8  -1   173.8    48.8
 -21   8  -2   -50.5    56.3
 -21   8  -3   531.7    59.0
 -21   8  -4  2636.4    82.9
 -21   8  -5  1138.8    97.9
 -21   8  -6  -120.7   139.9
 -21   8  -7   633.5   127.5
 -21   8  -8   583.0   164.5
 -21   8  -9  2577.8   267.6
 -21   8 -10  -436.8   281.9
 -21   9  -1  2826.9    76.9
 -21   9  -2  1877.3    69.0
 -21   9  -4   531.8    95.8
 -21   9  -5   132.4   115.2
 -21   9  -7     6.5   131.9
 -21   9  -8  1241.7   190.9
 -21   9 -10   925.8   327.4
 -21  10  -1  1073.3    79.5
 -21  10  -2  2603.1    86.8
 -21  10  -3  4384.2   135.3
 -21  10  -4   300.7   120.1
 -21  10  -6   594.6   156.9
 -21  10  -7   874.1   175.6
 -21  10  -8   833.7   222.3
 -21  10  -9   486.1   249.3
 -21  11  -1    86.6    82.8
 -21  11  -2   797.8    96.4
 -21  11  -3   841.3   127.4
 -21  11  -6     2.2   187.1
 -21  11  -7   559.5   184.4
 -21  11  -9  -161.4   313.6
 -21  12  -1   749.3   136.5
 -21  12  -7  3005.1   281.5
 -21  12  -8  -267.0   273.4
 -22 -13  -1  1026.9   178.2
 -22 -12  -1  4254.9   159.5
 -22 -11  -1  5891.4   168.5
 -22 -11  -2  2085.4   119.7
 -22 -11  -3  1197.1   128.2
 -22 -11  -5   467.3   185.7
 -22 -10  -1  1664.7    90.4
 -22 -10  -3  -116.9    89.3
 -22 -10  -5   627.7   149.4
 -22  -9  -1   359.0    70.9
 -22  -9  -2   234.3    82.4
 -22  -9  -3  4874.7   118.5
 -22  -9  -4    42.1   104.5
 -22  -9  -5   -51.2   140.8
 -22  -9  -6   -87.5   162.2
 -22  -8  -1    73.2    61.2
 -22  -8  -3  1977.5    87.0
 -22  -8  -5   289.7   118.3
 -22  -8  -9    22.1   282.5
 -22  -7   0    24.9    87.1
 -22  -7  -1  4718.7    85.4
 -22  -7  -2   212.0    62.3
 -22  -7  -3  2363.9    80.8
 -22  -7  -4   866.3    79.5
 -22  -7  -5   278.9   102.4
 -22  -7  -6   569.5   118.6
 -22  -7  -8    40.6   204.5
 -22  -7  -9  2259.9   311.5
 -22  -6  -1  1112.1    61.0
 -22  -6  -3   255.5    63.4
 -22  -6  -5   266.6    89.6
 -22  -6  -7   498.3   130.8
 -22  -6  -9  -266.4   258.3
 -22  -5  -1  1541.2    57.9
 -22  -5  -2    48.5    51.7
 -22  -5  -3   890.3    61.1
 -22  -5  -4    73.6    67.9
 -22  -5  -5  1228.9    72.8
 -22  -5  -6   -17.2   100.5
 -22  -5  -7   -82.4   118.5
 -22  -5  -8   459.6   160.4
 -22  -5  -9  -190.0   192.5
 -22  -5 -10   202.6   276.6
 -22  -4  -1   286.8    48.9
 -22  -4  -3   208.0    51.0
 -22  -4  -5  1821.8    76.3
 -22  -4  -7   414.8   109.0
 -22  -4  -9  -304.6   188.8
 -22  -3  -1  3952.9    60.1
 -22  -3  -2   407.9    50.0
 -22  -3  -3   661.7    65.5
 -22  -3  -4   268.5    63.7
 -22  -3  -5  1395.3    74.5
 -22  -3  -6    97.1    78.3
 -22  -3  -7   382.8   111.8
 -22  -3  -8   462.5   126.0
 -22  -3  -9   164.3   158.6
 -22  -3 -10   -93.5   297.8
 -22  -2  -1   986.6    47.9
 -22  -2  -3   -40.7    48.8
 -22  -2  -5   374.1    68.1
 -22  -2  -7   -78.6   106.3
 -22  -2  -9   216.2   157.0
 -22  -2 -11  1058.6   336.3
 -22  -1  -2    99.9    42.3
 -22  -1  -3   125.4    52.4
 -22  -1  -4    94.7    51.8
 -22  -1  -5   737.1    67.7
 -22  -1  -6   903.7    82.3
 -22  -1  -7   273.4    94.7
 -22  -1  -8  3097.0   161.2
 -22  -1  -9   135.9   165.3
 -22  -1 -10  -548.7   229.5
 -22   0  -1  1288.2    47.7
 -22   1  -1  5427.4    72.5
 -22   1  -2   193.2    47.2
 -22   1  -3   114.7    44.6
 -22   1  -4   110.2    56.2
 -22   1  -5    61.0    66.0
 -22   1  -6   775.9    84.0
 -22   1  -7   201.1   104.5
 -22   1  -8   316.3   122.0
 -22   1  -9   770.6   152.9
 -22   1 -10   763.1   218.1
 -22   2  -1   893.3    43.5
 -22   2  -3   102.3    46.9
 -22   2  -5     0.6    63.7
 -22   2  -7  -438.4   107.5
 -22   2  -9   998.8   191.1
 -22   3   0   269.3    64.6
 -22   3  -1   719.3    50.2
 -22   3  -2   -63.7    43.7
 -22   3  -3  7436.8    99.0
 -22   3  -4   117.8    60.6
 -22   3  -5    58.6    73.8
 -22   3  -6  1410.6    95.0
 -22   3  -7   133.7   103.0
 -22   3  -8  -339.0   127.4
 -22   3  -9  1423.6   180.0
 -22   3 -10   763.1   240.8
 -22   4  -1   -82.6    48.3
 -22   4  -3  1014.1    64.4
 -22   4  -5  1285.4    75.6
 -22   4  -7   383.9   115.6
 -22   4  -9  1803.2   200.2
 -22   5  -1   752.8    51.6
 -22   5  -2   -81.6    50.6
 -22   5  -3  2004.7    68.5
 -22   5  -4   -25.6    65.2
 -22   5  -5   275.3   119.0
 -22   5  -6   543.6    95.8
 -22   5  -7    30.3   125.2
 -22   5  -8   886.5   171.6
 -22   5  -9   760.5   223.1
 -22   5 -10  -109.0   309.6
 -22   6  -1   128.2    55.2
 -22   6  -3  1633.8    68.7
 -22   6  -5   468.4    97.5
 -22   6  -7   156.5   160.2
 -22   6  -9  -252.0   222.4
 -22   7   0   -10.1    84.6
 -22   7  -1   394.8    63.5
 -22   7  -2   505.0    73.0
 -22   7  -3   955.1    69.3
 -22   7  -4   -56.4    89.1
 -22   7  -5  2491.2   108.4
 -22   7  -6    79.8   131.2
 -22   7  -8  1738.9   194.4
 -22   7  -9   182.9   257.6
 -22   8  -1   788.2    67.2
 -22   8  -3   303.7    77.9
 -22   8  -5   243.1   122.3
 -22   9  -1  1197.6    80.1
 -22   9  -2    10.1    91.6
 -22   9  -3   -14.7    89.4
 -22   9  -4  1572.2   123.3
 -22   9  -5  -422.0   155.1
 -22   9  -8  1399.6   254.0
 -22  10  -1   410.5   103.9
 -22  10  -3   337.2   141.6
 -22  11  -1   355.8   130.8
 -22  11  -2    62.9   134.7
 -22  12  -1    91.1   145.3
 -23 -12  -1  -277.7   178.6
 -23 -12  -2  2726.3   191.8
 -23 -11  -1   223.2   158.9
 -23 -11  -2   278.4   150.1
 -23 -11  -3  -156.0   166.1
 -23 -11  -4   -38.4   229.4
 -23 -10  -1   389.3   116.4
 -23 -10  -2   196.7   140.0
 -23 -10  -3  1843.2   134.9
 -23 -10  -4   358.4   190.1
 -23  -9  -1   265.3    97.2
 -23  -9  -2  2162.9   125.9
 -23  -9  -3  3151.1   131.4
 -23  -9  -4   181.0   149.8
 -23  -9  -5  4193.4   202.2
 -23  -8  -1  -109.2    83.4
 -23  -8  -2   -64.3   110.1
 -23  -8  -3   135.1   109.0
 -23  -8  -4  1649.2   114.5
 -23  -8  -5    56.3   165.2
 -23  -8  -6  1768.5   202.3
 -23  -7  -1    14.6    80.2
 -23  -7  -2   506.2    85.0
 -23  -7  -3   202.7    94.5
 -23  -7  -4  -136.0   105.9
 -23  -7  -5   456.7   142.4
 -23  -7  -6  -224.6   165.3
 -23  -6  -1  1043.0    81.2
 -23  -6  -2   280.7    71.7
 -23  -6  -3   535.9    85.6
 -23  -6  -4   978.1   106.3
 -23  -6  -5  -150.4   110.1
 -23  -6  -6     4.2   160.6
 -23  -6  -7  2251.9   219.3
 -23  -5   0  3499.7   111.1
 -23  -5  -1   -68.0    70.6
 -23  -5  -2   377.6    70.2
 -23  -5  -3  2465.0    90.7
 -23  -5  -4   376.5    92.7
 -23  -5  -5  5932.8   142.0
 -23  -5  -6   -49.2   141.8
 -23  -5  -7   141.4   184.9
 -23  -5  -8   251.4   200.6
 -23  -5  -9   505.2   325.7
 -23  -4  -1   -60.1    61.7
 -23  -4  -2    91.8    64.4
 -23  -4  -3   727.9    71.0
 -23  -4  -4  6076.6   131.6
 -23  -4  -5  3324.4   120.2
 -23  -4  -6  1259.8   135.5
 -23  -4  -7  -141.3   151.1
 -23  -4  -8   477.0   200.3
 -23  -4  -9  1647.1   308.7
 -23  -3  -1  1522.7    60.0
 -23  -3  -2   630.1    68.0
 -23  -3  -3   793.1    72.4
 -23  -3  -4   111.1    87.3
 -23  -3  -5   340.1    96.3
 -23  -3  -6   240.5   108.4
 -23  -3  -7  2093.2   167.3
 -23  -3  -8  -393.7   209.6
 -23  -3  -9   -21.3   213.0
 -23  -2  -1  1342.1    66.1
 -23  -2  -3  2812.2    80.1
 -23  -2  -4  2084.7    84.7
 -23  -2  -5     4.8    91.6
 -23  -2  -6   706.3   127.5
 -23  -2  -7   -69.9   132.5
 -23  -2  -8    32.8   198.0
 -23  -2  -9   429.4   223.7
 -23  -2 -10  -728.2   318.3
 -23  -1  -2    53.9    55.6
 -23  -1  -3  3899.7    89.3
 -23  -1  -4  1750.8    79.9
 -23  -1  -5    49.9    89.1
 -23  -1  -6    26.8   121.2
 -23  -1  -7  2521.6   140.2
 -23  -1  -8    50.4   190.8
 -23  -1  -9  -386.7   238.7
 -23   0  -2 10258.2   164.3
 -23   0  -4  1282.9    79.2
 -23   0  -6  3565.5   141.9
 -23   0  -9   458.1   241.8
 -23   1  -2  1747.2    71.2
 -23   1  -3    42.8    60.9
 -23   1  -4   -47.5    76.3
 -23   1  -5   293.2    90.6
 -23   1  -6  -236.5   100.1
 -23   1  -7  -178.4   147.0
 -23   1  -8   108.7   178.6
 -23   1  -9   -31.0   246.9
 -23   1 -10  -122.7   313.9
 -23   2  -1  3069.9    68.5
 -23   2  -3   894.3    66.0
 -23   2  -4   957.9    79.3
 -23   2  -5     5.6    90.4
 -23   2  -6   240.4   106.1
 -23   2  -7  -174.8   171.7
 -23   2  -8   119.9   185.1
 -23   2  -9  -336.6   243.6
 -23   3   0   949.9    84.0
 -23   3  -1  3112.9    77.8
 -23   3  -2  2292.4    73.7
 -23   3  -3  2466.2    84.0
 -23   3  -4   239.7    82.0
 -23   3  -5  6213.2   143.8
 -23   3  -6  1802.5   132.6
 -23   3  -7  -117.6   161.0
 -23   3  -8    88.0   199.0
 -23   4  -1    45.4    68.7
 -23   4  -2   159.5    64.4
 -23   4  -3  -256.0    84.0
 -23   4  -5  2070.8   105.6
 -23   4  -6   548.4   137.1
 -23   4  -7  -155.7   154.8
 -23   4  -8   775.2   190.4
 -23   4  -9   689.9   310.3
 -23   5   0  1795.6   120.0
 -23   5  -1    47.3    65.5
 -23   5  -2   144.8    68.7
 -23   5  -3   156.1    82.8
 -23   5  -4   579.5    88.5
 -23   5  -6    68.7   131.2
 -23   5  -7  1775.7   181.7
 -23   5  -8  1402.1   245.7
 -23   6  -1   585.0    75.9
 -23   6  -2   104.7    78.9
 -23   6  -3  3488.4   112.6
 -23   6  -4  2088.5   105.6
 -23   6  -5   213.2   135.5
 -23   6  -7  1212.1   201.8
 -23   7   0   581.4   116.2
 -23   7  -1   662.3    86.9
 -23   7  -2  -151.8    98.6
 -23   7  -3   570.5    99.4
 -23   7  -4  3187.7   129.2
 -23   7  -5  1141.4   157.6
 -23   7  -6   233.5   171.3
 -23   8  -1   929.5   101.8
 -23   8  -2  1261.3   109.6
 -23   8  -3   422.5   106.0
 -23   8  -4  1399.0   150.8
 -23   8  -5  2346.0   163.2
 -23   9  -1  1123.0   108.1
 -23   9  -2   -20.6   124.6
 -23   9  -3   880.7   128.4
 -23   9  -4  -429.9   164.7
 -23  10  -1  1696.9   153.1
 -23  10  -2   149.1   139.9
 -23  10  -3  1624.5   175.8
 -23  11  -1   171.5   183.0
 -23  11  -2  -225.0   170.8
 -23  12  -1  -617.9   204.3
 -24 -11  -1   600.4   226.7
 -24 -10  -1   -27.3   164.1
 -24 -10  -3  1382.6   180.8
 -24  -9  -1   802.5   140.1
 -24  -9  -2    86.9   162.1
 -24  -9  -4  -147.9   198.8
 -24  -9  -5  1233.8   267.0
 -24  -8  -1   372.0   118.4
 -24  -8  -3   -29.3   155.7
 -24  -8  -5   333.5   240.8
 -24  -7  -1  1121.4   116.5
 -24  -7  -2   260.9   120.5
 -24  -7  -3   951.4   136.9
 -24  -7  -4  1904.8   175.7
 -24  -7  -5  1053.5   197.6
 -24  -7  -6   145.5   228.8
 -24  -6  -1  2221.2   121.5
 -24  -6  -5   129.7   152.6
 -24  -6  -7    91.8   291.2
 -24  -5  -1   363.4    99.4
 -24  -5  -2  2684.3   106.8
 -24  -5  -3     2.8   106.5
 -24  -5  -4   331.7   131.9
 -24  -5  -5  2191.4   163.0
 -24  -5  -6   380.4   202.2
 -24  -5  -7   176.3   256.6
 -24  -5  -8   695.0   287.7
 -24  -4  -1  -152.1    83.2
 -24  -4  -3  2068.0   111.5
 -24  -4  -5   -18.6   145.6
 -24  -4  -7   239.9   230.6
 -24  -3  -1   680.8    80.9
 -24  -3  -2   -56.9    92.4
 -24  -3  -4   432.5   103.1
 -24  -3  -5  1663.2   143.6
 -24  -3  -7   717.0   223.4
 -24  -2  -1  1757.1    90.8
 -24  -2  -3   947.2    95.3
 -24  -2  -5  -134.1   126.4
 -24  -2  -7    26.2   185.8
 -24  -1  -2   165.4    75.3
 -24  -1  -3    29.9    99.9
 -24  -1  -4  -128.0   103.5
 -24  -1  -5   287.0   112.3
 -24  -1  -6  1774.0   181.4
 -24  -1  -7   271.7   183.8
 -24  -1  -8  -172.5   281.9
 -24   0  -7   383.4   182.3
 -24   1  -2    85.4    90.4
 -24   1  -3  1370.8    95.7
 -24   1  -4  1198.0   109.7
 -24   1  -5   506.0   127.7
 -24   1  -6   256.8   140.7
 -24   1  -7  -235.1   200.3
 -24   1  -8   629.5   287.9
 -24   2  -1  1713.5    80.8
 -24   2  -3   163.2    95.6
 -24   2  -5   162.7   147.6
 -24   2  -7  1009.5   253.5
 -24   3  -1    30.3    83.6
 -24   3  -2  1726.1    96.3
 -24   3  -4   -42.7   112.8
 -24   3  -5   607.4   138.8
 -24   3  -7   160.2   231.7
 -24   3  -8  6745.7   330.4
 -24   4  -1   631.7    98.4
 -24   4  -3  2000.9   116.7
 -24   4  -5   275.6   135.0
 -24   4  -7   574.9   225.8
 -24   5  -1   -62.7   100.9
 -24   5  -2  1015.4    98.5
 -24   5  -3  -183.4   113.8
 -24   5  -4  3309.8   137.2
 -24   5  -5   883.1   154.3
 -24   5  -6   581.9   209.4
 -24   5  -7   129.0   247.3
 -24   6  -1   195.9   103.1
 -24   6  -5   287.1   188.1
 -24   7  -1  1547.0   125.9
 -24   7  -2   257.4   144.5
 -24   7  -3   420.0   135.5
 -24   7  -4   350.3   153.5
 -24   7  -5  -255.4   216.0
 -24   7  -6  2358.8   247.4
 -24   8  -1  -279.9   140.4
 -24   8  -3   577.8   154.7
 -24   9  -1   353.1   148.6
 -24   9  -2   446.3   175.4
 -24   9  -4   816.3   241.1
 -24  10  -1   204.1   206.8
 -24  10  -3   366.7   250.9
 -25 -10  -1   379.3   234.1
 -25  -9  -1  1994.1   202.8
 -25  -9  -2  1225.9   242.6
 -25  -9  -4   878.7   279.2
 -25  -8  -1  1412.9   191.5
 -25  -8  -2    90.5   203.3
 -25  -8  -3  1080.0   223.7
 -25  -8  -4   539.6   251.2
 -25  -7  -1   548.9   160.2
 -25  -7  -2    -7.9   172.5
 -25  -7  -3   526.1   193.2
 -25  -7  -4  2928.8   258.6
 -25  -7  -5  2263.7   274.0
 -25  -6  -1   623.0   163.9
 -25  -6  -2   329.9   158.0
 -25  -6  -3   496.0   154.9
 -25  -6  -4   109.5   209.4
 -25  -6  -5   724.1   258.1
 -25  -5  -1    61.4   144.0
 -25  -5  -2  2863.9   155.2
 -25  -5  -3   586.7   153.4
 -25  -5  -4   726.5   192.4
 -25  -5  -6   688.8   256.9
 -25  -4  -1   -54.3   119.1
 -25  -4  -2   970.4   131.2
 -25  -4  -3   186.1   149.7
 -25  -4  -4  1036.8   175.9
 -25  -4  -5  -216.3   233.9
 -25  -4  -6   -45.8   238.4
 -25  -3  -1  2764.0   124.5
 -25  -3  -2   546.7   133.8
 -25  -3  -3  1336.2   146.6
 -25  -3  -4    42.5   139.8
 -25  -3  -5  -386.5   189.4
 -25  -3  -6  1865.9   247.6
 -25  -3  -7  -486.2   296.0
 -25  -2  -1  1169.0   122.5
 -25  -2  -3   238.9   132.6
 -25  -2  -4   192.0   172.8
 -25  -2  -5   835.2   189.0
 -25  -2  -6   326.4   227.9
 -25  -2  -7   836.9   266.5
 -25  -1  -2    56.7   106.5
 -25  -1  -3   119.4   128.2
 -25  -1  -4  -272.4   166.5
 -25  -1  -5   190.5   166.7
 -25  -1  -6   661.7   258.5
 -25  -1  -7    48.0   261.4
 -25   0  -1   702.5   116.9
 -25   0  -2  3428.7   155.9
 -25   0  -4   259.7   174.1
 -25   1  -1   728.4   157.1
 -25   1  -2    58.0   118.6
 -25   1  -3  1660.0   136.5
 -25   1  -4  2970.3   165.3
 -25   1  -5   708.1   205.4
 -25   1  -6   707.5   203.7
 -25   1  -7  -276.0   303.4
 -25   2  -1  2489.1   115.8
 -25   2  -3    51.1   133.1
 -25   2  -4   178.2   141.6
 -25   2  -5   -33.0   210.2
 -25   2  -6  -169.7   211.2
 -25   2  -7   144.3   273.9
 -25   3  -1  1660.2   126.2
 -25   3  -2  -257.4   126.8
 -25   3  -4   179.0   166.0
 -25   3  -5   651.9   196.6
 -25   3  -6  1182.8   234.1
 -25   4  -1  -248.8   142.8
 -25   4  -2  1608.1   130.2
 -25   4  -3   130.0   152.7
 -25   4  -5   104.6   191.4
 -25   4  -6  -186.1   243.9
 -25   5  -1  3877.8   172.5
 -25   5  -2   572.9   136.6
 -25   5  -3   -63.9   165.9
 -25   5  -4  -505.7   230.5
 -25   5  -6   -39.1   307.9
 -25   6  -1  1169.8   150.6
 -25   6  -2   950.9   158.9
 -25   6  -3   197.2   191.8
 -25   6  -4  1753.5   201.1
 -25   6  -5   123.4   251.4
 -25   7  -1    23.2   173.0
 -25   7  -2  1333.0   186.6
 -25   7  -3    31.6   225.3
 -25   7  -4  -129.3   233.3
 -25   8  -1    45.1   205.1
 -25   8  -2   166.3   253.2
 -25   8  -3   957.2   214.1
 -25   8  -4   621.5   263.8
 -25   9  -1  -121.2   217.0
 -25   9  -3   879.4   270.7
 -26  -7  -2   513.9   258.6
 -26  -7  -3  3229.3   311.5
 -26  -6  -1    60.1   236.2
 -26  -6  -3  1479.8   232.6
 -26  -5  -1   627.4   191.3
 -26  -5  -2  -364.7   203.6
 -26  -5  -3   672.3   233.1
 -26  -5  -4   589.0   286.3
 -26  -4  -1   442.9   178.0
 -26  -4  -3   679.0   219.1
 -26  -3  -1  6114.0   208.3
 -26  -3  -2  -416.1   194.3
 -26  -3  -3  1042.6   210.3
 -26  -3  -4   751.7   214.8
 -26  -3  -5  -352.3   286.3
 -26  -2  -1   865.5   200.7
 -26  -2  -3  -361.4   195.5
 -26  -2  -5   389.3   242.7
 -26  -1  -2   100.3   171.5
 -26  -1  -3   280.8   189.9
 -26  -1  -4   339.5   239.7
 -26  -1  -5   496.0   237.2
 -26   0  -1   261.4   169.0
 -26   0  -5   589.8   237.7
 -26   1  -1  1167.0   202.8
 -26   1  -2  -220.4   170.2
 -26   1  -3  5490.6   231.1
 -26   1  -4   691.3   230.7
 -26   2  -1  1394.2   157.5
 -26   2  -3   253.0   190.7
 -26   3  -1   240.5   174.8
 -26   3  -2  -281.3   187.5
 -26   3  -4   188.8   246.1
 -26   3  -5   -37.7   281.8
 -26   3  -6  -186.6   332.0
 -26   4  -1  -154.8   207.8
 -26   4  -3   137.3   229.5
 -26   4  -5  3055.1   306.8
 -26   5  -1   945.7   216.5
 -26   5  -2   685.0   201.2
 -26   5  -3   358.0   216.7
 -26   6  -1    76.7   217.6
 -26   7  -1   501.1   250.9
 -26   7  -2  1261.9   282.4
 -26   7  -4   753.6   327.5
 -26   8  -1     4.4   305.8
 -27  -5  -1  4399.2   314.6
 -27  -4  -1   922.4   264.2
 -27  -4  -2  1015.6   291.8
 -27  -3  -1  1509.7   255.8
 -27  -3  -4  2690.2   372.9
 -27  -2  -1  3533.2   280.8
 -27  -2  -2  1382.5   258.2
 -27  -2  -3  -229.7   287.5
 -27  -1  -1   319.2   286.4
 -27  -1  -2  3011.9   270.7
 -27  -1  -3  2230.8   295.8
 -27   0  -1  -261.2   248.4
 -27   1  -2  -219.6   259.1
 -27   1  -3    39.0   300.3
 -27   1  -4   364.0   335.2
 -27   2  -1  1574.4   232.6
 -27   2  -4   592.9   324.4
 -27   3  -1   303.2   260.2
 -27   3  -2   278.6   276.4
 -27   4  -3  1685.2   351.2
 -27   5  -2   677.9   294.7
 -28   1  -1  2064.0   361.7
;
_shelx_hkl_checksum                1659
_olex2_submission_special_instructions  'No special instructions were received'
