data_15k_total
_audit_creation_date              2017-08-22
_audit_creation_method
;
Olex2 1.2
(compiled 2017.08.10 svn.r3458 for OlexSys, GUI svn.r5381)
;
_shelx_SHELXL_version_number      '2014/7'
_publ_contact_author_address      ?
_publ_contact_author_email        ?
_publ_contact_author_id_orcid     ?
_publ_contact_author_name         ''
_publ_contact_author_phone        ?
_publ_section_references
;
Dolomanov, O.V., Bourhis, L.J., Gildea, R.J, Howard, J.A.K. & Puschmann, H.
 (2009), J. Appl. Cryst. 42, 339-341.

Sheldrick, G.M. (2015). Acta Cryst. C71, 3-8.
;
_chemical_name_common             ?
_chemical_name_systematic         ?
_chemical_formula_moiety          'C55 H41 Dy N2 O6'
_chemical_formula_sum             'C55 H41 Dy N2 O6'
_chemical_formula_weight          988.40
_chemical_melting_point           ?
loop_
  _atom_type_symbol
  _atom_type_description
  _atom_type_scat_dispersion_real
  _atom_type_scat_dispersion_imag
  _atom_type_scat_source
 'C' 'C' 0.0000 0.0000
 'Neutron Data Booklet, ILL Grenoble, France (2003) ISBN 0-9704143-7-4'
 'H' 'H' 0.0000 0.0000
 'Neutron Data Booklet, ILL Grenoble, France (2003) ISBN 0-9704143-7-4'
 'Dy' 'Dy' 0.0000 0.0000
 'Neutron Data Booklet, ILL Grenoble, France (2003) ISBN 0-9704143-7-4'
 'N' 'N' 0.0000 0.0000
 'Neutron Data Booklet, ILL Grenoble, France (2003) ISBN 0-9704143-7-4'
 'O' 'O' 0.0000 0.0000
 'Neutron Data Booklet, ILL Grenoble, France (2003) ISBN 0-9704143-7-4'

_shelx_space_group_comment
;
The symmetry employed for this shelxl refinement is uniquely defined
by the following loop, which should always be used as a source of
symmetry information in preference to the above space-group names.
They are only intended as comments.
;
_space_group_crystal_system       'monoclinic'
_space_group_IT_number            14
_space_group_name_H-M_alt         'P 1 21/c 1'
_space_group_name_Hall            '-P 2ybc'
loop_
  _space_group_symop_operation_xyz
 'x, y, z'
 '-x, y+1/2, -z+1/2'
 '-x, -y, -z'
 'x, -y-1/2, z-1/2'

_cell_length_a                    13.2248(5)
_cell_length_b                    22.1323(6)
_cell_length_c                    16.0555(6)
_cell_angle_alpha                 90
_cell_angle_beta                  109.646(8)
_cell_angle_gamma                 90
_cell_volume                      4425.8(3)
_cell_formula_units_Z             4
_cell_measurement_reflns_used     ?
_cell_measurement_temperature     293(2)
_cell_measurement_theta_max       ?
_cell_measurement_theta_min       ?
_shelx_estimated_absorpt_T_max    ?
_shelx_estimated_absorpt_T_min    ?
_exptl_absorpt_coefficient_mu     0.042
_exptl_absorpt_correction_T_max   ?
_exptl_absorpt_correction_T_min   ?
_exptl_absorpt_correction_type    ?
_exptl_absorpt_process_details    ?
_exptl_absorpt_special_details    ?
_exptl_crystal_colour             ?
_exptl_crystal_density_diffrn     1.483
_exptl_crystal_density_meas       ?
_exptl_crystal_density_method     ?
_exptl_crystal_description        ?
_exptl_crystal_F_000              1996
_exptl_crystal_size_max           ?
_exptl_crystal_size_mid           ?
_exptl_crystal_size_min           ?
_exptl_transmission_factor_max    ?
_exptl_transmission_factor_min    ?
_diffrn_reflns_av_R_equivalents   ?
_diffrn_reflns_av_unetI/netI      0.1101
_diffrn_reflns_Laue_measured_fraction_full 0.744
_diffrn_reflns_Laue_measured_fraction_max 0.692
_diffrn_reflns_limit_h_max        22
_diffrn_reflns_limit_h_min        0
_diffrn_reflns_limit_k_max        37
_diffrn_reflns_limit_k_min        0
_diffrn_reflns_limit_l_max        24
_diffrn_reflns_limit_l_min        -27
_diffrn_reflns_number             22109
_diffrn_reflns_point_group_measured_fraction_full 0.744
_diffrn_reflns_point_group_measured_fraction_max 0.692
_diffrn_reflns_theta_full         25.242
_diffrn_reflns_theta_max          36.830
_diffrn_reflns_theta_min          3.072
_diffrn_ambient_temperature       293(2)
_diffrn_detector_area_resol_mean  ?
_diffrn_measured_fraction_theta_full 0.744
_diffrn_measured_fraction_theta_max 0.692
_diffrn_measurement_device_type   ?
_diffrn_measurement_method        ?
_diffrn_radiation_type            neutrons
_diffrn_radiation_wavelength      0.71073
_diffrn_source                    ?
_reflns_Friedel_coverage          0.000
_reflns_Friedel_fraction_full     .
_reflns_Friedel_fraction_max      .
_reflns_number_gt                 14005
_reflns_number_total              22109
_reflns_special_details
;
 _reflns_Friedel_fraction is defined as the number of unique
 Friedel pairs measured divided by the number that would be
 possible theoretically, ignoring centric projections and
 systematic absences.
;
_reflns_threshold_expression      'I > 2\s(I)'
_computing_cell_refinement        ?
_computing_data_collection        ?
_computing_data_reduction         ?
_computing_molecular_graphics     'Olex2 (Dolomanov et al., 2009)'
_computing_publication_material   'Olex2 (Dolomanov et al., 2009)'
_computing_structure_refinement   'ShelXL (Sheldrick, 2015)'
_computing_structure_solution     ?
_refine_diff_density_max          1.583
_refine_diff_density_min          -1.682
_refine_diff_density_rms          0.353
_refine_ls_extinction_coef        .
_refine_ls_extinction_method      none
_refine_ls_goodness_of_fit_ref    1.144
_refine_ls_hydrogen_treatment     refall
_refine_ls_matrix_type            full
_refine_ls_number_parameters      947
_refine_ls_number_reflns          22109
_refine_ls_number_restraints      0
_refine_ls_R_factor_all           0.1396
_refine_ls_R_factor_gt            0.0554
_refine_ls_restrained_S_all       1.144
_refine_ls_shift/su_max           0.001
_refine_ls_shift/su_mean          0.000
_refine_ls_structure_factor_coef  Fsqd
_refine_ls_weighting_details
'w=1/[\s^2^(Fo^2^)+(0.0425P)^2^+50.2992P] where P=(Fo^2^+2Fc^2^)/3'
_refine_ls_weighting_scheme       calc
_refine_ls_wR_factor_gt           0.1141
_refine_ls_wR_factor_ref          0.1483
_refine_special_details           ?
_olex2_refinement_description
;
1. Twinned data refinement
 Scales: 0.121(2)
 0.879(2)
;
_atom_sites_solution_hydrogens    difmap
_atom_sites_solution_primary      ?
_atom_sites_solution_secondary    ?
loop_
  _atom_site_label
  _atom_site_type_symbol
  _atom_site_fract_x
  _atom_site_fract_y
  _atom_site_fract_z
  _atom_site_U_iso_or_equiv
  _atom_site_adp_type
  _atom_site_occupancy
  _atom_site_site_symmetry_order
  _atom_site_calc_flag
  _atom_site_refinement_flags_posn
  _atom_site_refinement_flags_adp
  _atom_site_refinement_flags_occupancy
  _atom_site_disorder_assembly
  _atom_site_disorder_group
 Dy1 Dy 0.78746(5) 0.66024(3) 0.89745(3) 0.00535(10) Uani 1 1 d . . . . .
 O4 O 0.62055(16) 0.63730(9) 0.79525(11) 0.0103(3) Uani 1 1 d . . . . .
 O2 O 0.95664(15) 0.61981(8) 0.96908(11) 0.0099(3) Uani 1 1 d . . . . .
 O6 O 0.70853(19) 0.75324(8) 0.84584(14) 0.0105(3) Uani 1 1 d . . . . .
 O1 O 0.76402(15) 0.57835(8) 0.97694(11) 0.0094(3) Uani 1 1 d . . . . .
 O3 O 0.81155(15) 0.60008(9) 0.78512(11) 0.0098(3) Uani 1 1 d . . . . .
 O5 O 0.90733(16) 0.71888(9) 0.85456(12) 0.0102(3) Uani 1 1 d . . . . .
 C12 C 1.11698(13) 0.58344(7) 1.07281(9) 0.0087(3) Uani 1 1 d . . . . .
 N1 N 0.66079(9) 0.68618(5) 0.98437(7) 0.00907(18) Uani 1 1 d . . . . .
 N2 N 0.86471(9) 0.72767(5) 1.03391(7) 0.00931(19) Uani 1 1 d . . . . .
 C35 C 0.56290(13) 0.66086(8) 0.96137(9) 0.0102(3) Uani 1 1 d . . . . .
 H35 H 0.5392(3) 0.6351(2) 0.8999(2) 0.0253(8) Uani 1 1 d . . . . .
 C9 C 1.34215(14) 0.58816(8) 1.14528(10) 0.0117(3) Uani 1 1 d . . . . .
 H9 H 1.4291(3) 0.5901(2) 1.1736(3) 0.0271(8) Uani 1 1 d . . . . .
 C23 C 0.66796(14) 0.85660(7) 0.84786(10) 0.0100(3) Uani 1 1 d . . . . .
 C50 C 0.92323(14) 0.53300(8) 0.70447(10) 0.0104(3) Uani 1 1 d . . . . .
 H50 H 0.9575(3) 0.5483(2) 0.7725(2) 0.0249(7) Uani 1 1 d . . . . .
 C41 C 0.41038(14) 0.61646(8) 0.58319(10) 0.0112(3) Uani 1 1 d . . . . .
 H41 H 0.4436(3) 0.5804(2) 0.5544(3) 0.0265(8) Uani 1 1 d . . . . .
 C44 C 0.58541(13) 0.62477(7) 0.71318(9) 0.0088(3) Uani 1 1 d . . . . .
 C46 C 0.42458(14) 0.68721(8) 0.70140(10) 0.0105(3) Uani 1 1 d . . . . .
 H46 H 0.4726(3) 0.70718(19) 0.7643(2) 0.0254(7) Uani 1 1 d . . . . .
 C5 C 0.66194(15) 0.42823(8) 1.16803(10) 0.0122(3) Uani 1 1 d . . . . .
 H5 H 0.6227(4) 0.4000(2) 1.2034(3) 0.0290(8) Uani 1 1 d . . . . .
 C10 C 1.28686(14) 0.53693(8) 1.15714(10) 0.0111(3) Uani 1 1 d . . . . .
 H10 H 1.3308(4) 0.49797(18) 1.1931(3) 0.0265(8) Uani 1 1 d . . . . .
 C3 C 0.66321(14) 0.51666(8) 1.07978(10) 0.0110(3) Uani 1 1 d . . . . .
 H3 H 0.6249(3) 0.55699(19) 1.0450(3) 0.0274(8) Uani 1 1 d . . . . .
 C61 C 0.82349(13) 0.54523(7) 1.03892(9) 0.0084(2) Uani 1 1 d . . . . .
 C40 C 0.49564(13) 0.66603(8) 1.01174(10) 0.0115(3) Uani 1 1 d . . . . .
 H40 H 0.4181(3) 0.6435(2) 0.9902(3) 0.0276(8) Uani 1 1 d . . . . .
 C16 C 1.20932(15) 0.75998(9) 0.84868(12) 0.0126(3) Uani 1 1 d . . . . .
 H16 H 1.2741(4) 0.7269(2) 0.8709(3) 0.0301(8) Uani 1 1 d . . . . .
 C13 C 1.04338(14) 0.84438(8) 0.79267(10) 0.0115(3) Uani 1 1 d . . . . .
 H13 H 0.9792(4) 0.87714(19) 0.7686(3) 0.0287(8) Uani 1 1 d . . . . .
 C11 C 1.17500(13) 0.53451(7) 1.12146(10) 0.0096(3) Uani 1 1 d . . . . .
 H11 H 1.1341(4) 0.49377(18) 1.1302(3) 0.0247(8) Uani 1 1 d . . . . .
 C19 C 0.52348(15) 0.94596(8) 0.86264(11) 0.0129(3) Uani 1 1 d . . . . .
 H19 H 0.4670(4) 0.9805(2) 0.8673(3) 0.0284(8) Uani 1 1 d . . . . .
 C51 C 0.81625(13) 0.54870(8) 0.65800(9) 0.0095(3) Uani 1 1 d . . . . .
 C27 C 0.92111(13) 0.77421(7) 0.84187(10) 0.0091(3) Uani 1 1 d . . . . .
 C31 C 0.96398(15) 0.75052(7) 1.05384(11) 0.0107(3) Uani 1 1 d . . . . .
 H31 H 1.0099(3) 0.7344(2) 1.0136(3) 0.0262(8) Uani 1 1 d . . . . .
 C60 C 0.93639(13) 0.54752(8) 1.07133(10) 0.0098(3) Uani 1 1 d . . . . .
 H60 H 0.9786(3) 0.5198(2) 1.1277(2) 0.0243(7) Uani 1 1 d . . . . .
 C52 C 0.77183(14) 0.53167(8) 0.56921(10) 0.0124(3) Uani 1 1 d . . . . .
 H52 H 0.6903(3) 0.5443(2) 0.5302(3) 0.0302(9) Uani 1 1 d . . . . .
 C24 C 0.58598(14) 0.84250(8) 0.88253(10) 0.0117(3) Uani 1 1 d . . . . .
 H24 H 0.5803(4) 0.79632(18) 0.9034(3) 0.0271(8) Uani 1 1 d . . . . .
 C22 C 0.67557(14) 0.91585(8) 0.81970(10) 0.0112(3) Uani 1 1 d . . . . .
 H22 H 0.7356(4) 0.9275(2) 0.7900(3) 0.0289(8) Uani 1 1 d . . . . .
 C6 C 0.76428(14) 0.41282(8) 1.16768(10) 0.0120(3) Uani 1 1 d . . . . .
 H6 H 0.8035(4) 0.3722(2) 1.2013(3) 0.0288(8) Uani 1 1 d . . . . .
 C43 C 0.75715(13) 0.58376(7) 0.70747(9) 0.0085(2) Uani 1 1 d . . . . .
 C20 C 0.51485(14) 0.88682(8) 0.89016(11) 0.0123(3) Uani 1 1 d . . . . .
 H20 H 0.4520(4) 0.8751(2) 0.9173(3) 0.0285(8) Uani 1 1 d . . . . .
 C15 C 1.22566(14) 0.81433(8) 0.81074(11) 0.0131(3) Uani 1 1 d . . . . .
 H15 H 1.3023(4) 0.8239(2) 0.8023(3) 0.0303(8) Uani 1 1 d . . . . .
 C8 C 1.28465(14) 0.63684(8) 1.09616(10) 0.0113(3) Uani 1 1 d . . . . .
 H8 H 1.3256(3) 0.6771(2) 1.0861(3) 0.0280(8) Uani 1 1 d . . . . .
 C49 C 0.30631(14) 0.63668(8) 0.53842(10) 0.0130(3) Uani 1 1 d . . . . .
 H49 H 0.2599(4) 0.6168(2) 0.4750(3) 0.0311(9) Uani 1 1 d . . . . .
 C55 C 0.83266(16) 0.49860(8) 0.52891(11) 0.0140(3) Uani 1 1 d . . . . .
 H55 H 0.7971(4) 0.4860(2) 0.4596(3) 0.0321(9) Uani 1 1 d . . . . .
 C7 C 1.17336(13) 0.63414(8) 1.05978(10) 0.0101(3) Uani 1 1 d . . . . .
 H7 H 1.1281(3) 0.67146(19) 1.0210(3) 0.0263(8) Uani 1 1 d . . . . .
 C18 C 1.02658(13) 0.79030(7) 0.83087(10) 0.0096(3) Uani 1 1 d . . . . .
 C45 C 0.47122(13) 0.64202(7) 0.66438(9) 0.0092(3) Uani 1 1 d . . . . .
 C4 C 0.61068(14) 0.47983(8) 1.12283(11) 0.0122(3) Uani 1 1 d . . . . .
 H4 H 0.5307(4) 0.4915(2) 1.1213(3) 0.0286(8) Uani 1 1 d . . . . .
 C29 C 0.94393(14) 0.81148(8) 1.17040(10) 0.0110(3) Uani 1 1 d . . . . .
 H29 H 0.9738(4) 0.8437(2) 1.2247(3) 0.0284(8) Uani 1 1 d . . . . .
 C54 C 0.93794(15) 0.48194(8) 0.57635(10) 0.0127(3) Uani 1 1 d . . . . .
 H54 H 0.9846(4) 0.4556(2) 0.5452(3) 0.0293(8) Uani 1 1 d . . . . .
 C53 C 0.98390(15) 0.49994(7) 0.66444(11) 0.0120(3) Uani 1 1 d . . . . .
 H53 H 1.0669(3) 0.4881(2) 0.7023(3) 0.0287(8) Uani 1 1 d . . . . .
 C38 C 0.63342(14) 0.72554(8) 1.11472(10) 0.0115(3) Uani 1 1 d . . . . .
 H38 H 0.6634(4) 0.7503(2) 1.1766(3) 0.0279(9) Uani 1 1 d . . . . .
 C59 C 0.99692(13) 0.58427(7) 1.03384(9) 0.0085(2) Uani 1 1 d . . . . .
 C48 C 0.26108(15) 0.68222(9) 0.57505(11) 0.0144(3) Uani 1 1 d . . . . .
 H48 H 0.1808(4) 0.6981(2) 0.5388(3) 0.0329(9) Uani 1 1 d . . . . .
 C21 C 0.60376(15) 0.96015(8) 0.82731(11) 0.0126(3) Uani 1 1 d . . . . .
 H21 H 0.6104(4) 1.00607(19) 0.8046(3) 0.0287(8) Uani 1 1 d . . . . .
 C47 C 0.32004(14) 0.70695(8) 0.65712(11) 0.0127(3) Uani 1 1 d . . . . .
 H47 H 0.2847(4) 0.7420(2) 0.6862(3) 0.0296(9) Uani 1 1 d . . . . .
 C17 C 1.11036(15) 0.74783(7) 0.85826(11) 0.0106(3) Uani 1 1 d . . . . .
 H17 H 1.0954(3) 0.70512(19) 0.8861(3) 0.0256(7) Uani 1 1 d . . . . .
 C28 C 1.00725(14) 0.79231(8) 1.12148(10) 0.0111(3) Uani 1 1 d . . . . .
 H28 H 1.0880(3) 0.8093(2) 1.1350(3) 0.0277(8) Uani 1 1 d . . . . .
 C42 C 0.64706(13) 0.59742(8) 0.66689(10) 0.0098(3) Uani 1 1 d . . . . .
 H42 H 0.6092(3) 0.5876(2) 0.5973(2) 0.0271(8) Uani 1 1 d . . . . .
 C26 C 0.84625(14) 0.82016(8) 0.84044(11) 0.0109(3) Uani 1 1 d . . . . .
 H26 H 0.8687(4) 0.86670(18) 0.8385(3) 0.0271(8) Uani 1 1 d . . . . .
 C1 C 0.76742(14) 0.50240(7) 1.08133(10) 0.0088(3) Uani 1 1 d . . . . .
 C39 C 0.53257(14) 0.69875(8) 1.09039(10) 0.0130(3) Uani 1 1 d . . . . .
 H39 H 0.4845(4) 0.7033(2) 1.1330(3) 0.0321(9) Uani 1 1 d . . . . .
 C34 C 0.80366(14) 0.74592(7) 1.08206(10) 0.0088(3) Uani 1 1 d . . . . .
 C2 C 0.81650(14) 0.44931(7) 1.12384(10) 0.0103(3) Uani 1 1 d . . . . .
 H2 H 0.8943(3) 0.43584(19) 1.1211(3) 0.0252(7) Uani 1 1 d . . . . .
 C37 C 0.69549(13) 0.71867(7) 1.05972(9) 0.0086(3) Uani 1 1 d . . . . .
 C30 C 0.84084(14) 0.78804(8) 1.15002(10) 0.0106(3) Uani 1 1 d . . . . .
 H30 H 0.7908(3) 0.8022(2) 1.1875(3) 0.0263(8) Uani 1 1 d . . . . .
 C14 C 1.14254(15) 0.85657(8) 0.78273(11) 0.0134(3) Uani 1 1 d . . . . .
 H14 H 1.1546(4) 0.8984(2) 0.7526(3) 0.0316(9) Uani 1 1 d . . . . .
 C25 C 0.74329(13) 0.80672(7) 0.84401(10) 0.0089(3) Uani 1 1 d . . . . .

loop_
  _atom_site_aniso_label
  _atom_site_aniso_U_11
  _atom_site_aniso_U_22
  _atom_site_aniso_U_33
  _atom_site_aniso_U_23
  _atom_site_aniso_U_13
  _atom_site_aniso_U_12
 Dy1 0.0055(2) 0.0056(2) 0.00532(18) 0.00008(16) 0.00229(17) 0.00001(18)
 O4 0.0095(8) 0.0128(8) 0.0088(6) -0.0021(5) 0.0033(6) 0.0006(6)
 O2 0.0091(8) 0.0106(8) 0.0105(6) 0.0023(5) 0.0041(6) 0.0003(6)
 O6 0.0110(9) 0.0084(9) 0.0128(7) 0.0014(5) 0.0048(7) 0.0005(6)
 O1 0.0085(8) 0.0095(8) 0.0097(6) 0.0016(5) 0.0026(6) 0.0001(6)
 O3 0.0096(8) 0.0118(8) 0.0082(6) -0.0016(5) 0.0031(6) 0.0008(6)
 O5 0.0107(8) 0.0087(8) 0.0133(7) 0.0016(5) 0.0071(6) 0.0001(6)
 C12 0.0084(7) 0.0084(7) 0.0093(5) 0.0003(4) 0.0029(5) -0.0004(5)
 N1 0.0088(5) 0.0105(5) 0.0087(4) -0.0012(3) 0.0040(3) -0.0014(4)
 N2 0.0083(5) 0.0114(5) 0.0091(4) -0.0021(3) 0.0040(3) -0.0012(4)
 C35 0.0084(7) 0.0131(7) 0.0094(5) -0.0029(5) 0.0036(5) -0.0019(5)
 H35 0.0244(19) 0.031(2) 0.0213(14) -0.0128(13) 0.0090(13) -0.0081(15)
 C9 0.0081(7) 0.0119(7) 0.0145(6) 0.0012(5) 0.0031(5) 0.0007(5)
 H9 0.0130(16) 0.031(2) 0.0352(18) 0.0044(15) 0.0047(14) -0.0013(14)
 C23 0.0113(7) 0.0095(7) 0.0104(5) 0.0006(4) 0.0050(5) 0.0009(5)
 C50 0.0097(7) 0.0125(7) 0.0092(5) -0.0004(5) 0.0033(5) 0.0030(5)
 H50 0.0235(19) 0.034(2) 0.0148(12) -0.0040(12) 0.0030(12) 0.0044(15)
 C41 0.0100(7) 0.0137(7) 0.0090(5) -0.0010(5) 0.0020(5) 0.0005(5)
 H41 0.0244(19) 0.028(2) 0.0249(15) -0.0090(13) 0.0060(14) 0.0060(15)
 C44 0.0079(7) 0.0108(7) 0.0082(5) -0.0001(4) 0.0034(5) 0.0002(5)
 C46 0.0097(7) 0.0107(7) 0.0113(6) -0.0001(5) 0.0037(5) 0.0012(5)
 H46 0.027(2) 0.0257(19) 0.0211(14) -0.0076(12) 0.0048(13) 0.0014(14)
 C5 0.0134(7) 0.0128(7) 0.0119(6) 0.0013(5) 0.0062(5) -0.0027(6)
 H5 0.030(2) 0.030(2) 0.0327(18) 0.0105(15) 0.0178(16) -0.0029(16)
 C10 0.0089(7) 0.0117(7) 0.0119(6) 0.0011(5) 0.0024(5) 0.0011(5)
 H10 0.0192(19) 0.0217(19) 0.036(2) 0.0100(13) 0.0055(16) 0.0052(13)
 C3 0.0106(7) 0.0111(7) 0.0127(6) 0.0022(5) 0.0058(5) 0.0002(6)
 H3 0.0241(19) 0.0222(19) 0.0381(19) 0.0114(15) 0.0133(16) 0.0079(14)
 C61 0.0075(6) 0.0091(7) 0.0086(5) 0.0011(4) 0.0028(5) -0.0011(5)
 C40 0.0094(7) 0.0142(8) 0.0118(5) -0.0030(5) 0.0048(5) -0.0025(5)
 H40 0.0176(18) 0.037(2) 0.0287(17) -0.0097(15) 0.0089(14) -0.0098(15)
 C16 0.0103(8) 0.0139(7) 0.0142(7) 0.0009(5) 0.0048(6) 0.0003(6)
 H16 0.0214(19) 0.028(2) 0.041(2) 0.0053(16) 0.0110(16) 0.0076(15)
 C13 0.0114(7) 0.0114(7) 0.0133(6) 0.0027(5) 0.0061(5) -0.0004(6)
 H13 0.026(2) 0.0222(19) 0.042(2) 0.0106(15) 0.0158(17) 0.0085(15)
 C11 0.0090(7) 0.0094(7) 0.0101(5) 0.0007(4) 0.0031(5) 0.0004(5)
 H11 0.024(2) 0.0178(17) 0.0315(18) 0.0040(13) 0.0086(15) -0.0043(13)
 C19 0.0130(8) 0.0121(7) 0.0139(6) 0.0001(5) 0.0046(5) 0.0033(6)
 H19 0.028(2) 0.024(2) 0.038(2) 0.0000(15) 0.0162(17) 0.0097(16)
 C51 0.0085(7) 0.0114(7) 0.0086(5) -0.0014(5) 0.0029(5) 0.0007(5)
 C27 0.0102(7) 0.0079(7) 0.0103(5) 0.0009(4) 0.0048(5) -0.0004(5)
 C31 0.0088(8) 0.0122(8) 0.0120(6) -0.0029(5) 0.0049(5) -0.0020(5)
 H31 0.0234(19) 0.035(2) 0.0253(15) -0.0092(15) 0.0148(14) -0.0020(16)
 C60 0.0079(7) 0.0109(7) 0.0106(5) 0.0026(5) 0.0030(5) -0.0003(5)
 H60 0.0183(18) 0.030(2) 0.0217(14) 0.0122(13) 0.0038(13) 0.0020(14)
 C52 0.0115(7) 0.0162(8) 0.0088(5) -0.0032(5) 0.0026(5) 0.0024(6)
 H52 0.0200(19) 0.042(2) 0.0248(16) -0.0072(15) 0.0024(14) 0.0081(16)
 C24 0.0106(7) 0.0113(7) 0.0145(6) 0.0007(5) 0.0059(5) 0.0010(5)
 H24 0.031(2) 0.0154(17) 0.040(2) 0.0051(14) 0.0190(17) 0.0029(14)
 C22 0.0127(7) 0.0096(7) 0.0126(6) 0.0024(5) 0.0059(5) 0.0027(5)
 H22 0.033(2) 0.0238(19) 0.039(2) 0.0051(15) 0.0245(18) 0.0019(15)
 C6 0.0129(7) 0.0108(7) 0.0127(6) 0.0025(5) 0.0046(5) -0.0012(5)
 H6 0.027(2) 0.0234(19) 0.0352(19) 0.0119(15) 0.0100(16) 0.0050(15)
 C43 0.0076(6) 0.0101(7) 0.0079(5) 0.0000(4) 0.0024(5) 0.0007(5)
 C20 0.0106(7) 0.0128(7) 0.0147(6) -0.0003(5) 0.0060(5) 0.0011(5)
 H20 0.026(2) 0.027(2) 0.041(2) -0.0002(15) 0.0212(17) -0.0013(15)
 C15 0.0115(8) 0.0144(8) 0.0150(6) -0.0005(5) 0.0066(6) -0.0029(6)
 H15 0.0203(19) 0.036(2) 0.039(2) 0.0023(16) 0.0153(16) -0.0052(16)
 C8 0.0092(7) 0.0107(7) 0.0139(6) 0.0007(5) 0.0037(5) -0.0017(5)
 H8 0.0186(18) 0.025(2) 0.0387(19) 0.0080(15) 0.0080(15) -0.0050(14)
 C49 0.0095(7) 0.0182(8) 0.0100(6) 0.0000(5) 0.0014(5) 0.0020(6)
 H49 0.025(2) 0.042(3) 0.0196(15) -0.0083(15) -0.0007(14) 0.0000(17)
 C55 0.0142(8) 0.0184(9) 0.0095(6) -0.0036(5) 0.0042(6) 0.0035(6)
 H55 0.033(2) 0.043(2) 0.0177(15) -0.0113(15) 0.0039(15) 0.0073(19)
 C7 0.0083(7) 0.0098(7) 0.0120(6) 0.0018(5) 0.0034(5) 0.0003(5)
 H7 0.0201(18) 0.0232(19) 0.0332(18) 0.0112(14) 0.0057(14) 0.0044(14)
 C18 0.0103(7) 0.0092(7) 0.0106(5) 0.0010(4) 0.0053(5) -0.0004(5)
 C45 0.0086(7) 0.0105(7) 0.0083(5) 0.0000(4) 0.0025(5) 0.0009(5)
 C4 0.0115(7) 0.0130(8) 0.0139(6) 0.0014(5) 0.0066(6) -0.0008(6)
 H4 0.020(2) 0.032(2) 0.039(2) 0.0072(16) 0.0166(17) 0.0023(15)
 C29 0.0098(7) 0.0121(7) 0.0111(6) -0.0035(5) 0.0034(5) -0.0019(5)
 H29 0.028(2) 0.031(2) 0.0255(16) -0.0152(15) 0.0074(15) -0.0066(16)
 C54 0.0135(8) 0.0151(8) 0.0107(6) -0.0018(5) 0.0058(5) 0.0035(6)
 H54 0.031(2) 0.035(2) 0.0261(16) -0.0072(15) 0.0149(15) 0.0080(17)
 C53 0.0114(8) 0.0135(8) 0.0119(6) -0.0006(5) 0.0049(6) 0.0028(5)
 H53 0.0180(19) 0.037(2) 0.0290(17) -0.0033(16) 0.0059(15) 0.0064(16)
 C38 0.0099(7) 0.0160(8) 0.0103(6) -0.0039(5) 0.0055(5) -0.0020(6)
 H38 0.027(2) 0.036(2) 0.0218(16) -0.0138(13) 0.0103(15) -0.0105(15)
 C59 0.0078(6) 0.0096(7) 0.0083(5) 0.0012(4) 0.0032(5) -0.0001(5)
 C48 0.0114(8) 0.0192(8) 0.0127(6) 0.0031(5) 0.0042(5) 0.0038(6)
 H48 0.020(2) 0.045(3) 0.0310(18) 0.0029(17) 0.0061(15) 0.0122(17)
 C21 0.0147(8) 0.0097(7) 0.0139(6) 0.0010(5) 0.0054(6) 0.0030(6)
 H21 0.035(2) 0.0182(18) 0.037(2) 0.0068(14) 0.0178(18) 0.0034(15)
 C47 0.0109(7) 0.0144(8) 0.0133(6) 0.0019(5) 0.0048(5) 0.0041(6)
 H47 0.027(2) 0.033(2) 0.0300(19) -0.0046(15) 0.0100(17) 0.0136(16)
 C17 0.0093(8) 0.0108(7) 0.0125(6) 0.0010(5) 0.0047(5) 0.0001(5)
 H17 0.025(2) 0.0205(18) 0.0328(18) 0.0102(13) 0.0125(15) 0.0018(14)
 C28 0.0096(7) 0.0120(7) 0.0121(6) -0.0033(5) 0.0041(5) -0.0025(5)
 H28 0.0161(17) 0.035(2) 0.0334(18) -0.0107(15) 0.0099(14) -0.0089(15)
 C42 0.0083(7) 0.0126(7) 0.0087(5) -0.0014(5) 0.0030(5) 0.0016(5)
 H42 0.0239(19) 0.038(2) 0.0178(14) -0.0075(14) 0.0050(13) 0.0022(16)
 C26 0.0102(7) 0.0086(7) 0.0156(6) 0.0003(5) 0.0064(5) 0.0000(5)
 H26 0.028(2) 0.0152(17) 0.042(2) 0.0017(14) 0.0176(17) -0.0016(14)
 C1 0.0079(7) 0.0098(7) 0.0097(6) 0.0011(4) 0.0041(5) -0.0006(5)
 C39 0.0109(7) 0.0175(8) 0.0127(6) -0.0049(5) 0.0066(5) -0.0033(6)
 H39 0.029(2) 0.045(3) 0.0316(18) -0.0154(17) 0.0213(17) -0.0096(18)
 C34 0.0081(7) 0.0097(7) 0.0084(5) -0.0019(4) 0.0027(5) -0.0013(5)
 C2 0.0106(7) 0.0094(7) 0.0109(6) 0.0028(5) 0.0034(5) 0.0005(5)
 H2 0.0194(18) 0.0258(19) 0.0319(17) 0.0069(14) 0.0107(14) 0.0049(14)
 C37 0.0070(6) 0.0100(7) 0.0093(5) -0.0015(4) 0.0035(5) -0.0007(5)
 C30 0.0098(7) 0.0115(7) 0.0113(6) -0.0038(5) 0.0045(5) -0.0011(5)
 H30 0.0229(19) 0.034(2) 0.0272(16) -0.0102(14) 0.0146(14) -0.0010(15)
 C14 0.0131(8) 0.0132(8) 0.0163(6) 0.0015(5) 0.0079(6) -0.0023(6)
 H14 0.033(2) 0.026(2) 0.040(2) 0.0131(16) 0.0180(18) -0.0034(16)
 C25 0.0088(7) 0.0079(6) 0.0111(5) 0.0010(5) 0.0049(5) 0.0005(5)

_geom_special_details
;
 All esds (except the esd in the dihedral angle between two l.s. planes)
 are estimated using the full covariance matrix.  The cell esds are taken
 into account individually in the estimation of esds in distances, angles
 and torsion angles; correlations between esds in cell parameters are only
 used when they are defined by crystal symmetry.  An approximate (isotropic)
 treatment of cell esds is used for estimating esds involving l.s. planes.
;
loop_
  _geom_bond_atom_site_label_1
  _geom_bond_atom_site_label_2
  _geom_bond_distance
  _geom_bond_site_symmetry_2
  _geom_bond_publ_flag
 Dy1 O4 2.321(2) . ?
 Dy1 O2 2.324(2) . ?
 Dy1 O6 2.330(2) . ?
 Dy1 O1 2.2971(19) . ?
 Dy1 O3 2.3480(18) . ?
 Dy1 O5 2.3250(19) . ?
 Dy1 N1 2.5799(12) . ?
 Dy1 N2 2.5623(12) . ?
 O4 C44 1.272(2) . ?
 O2 C59 1.269(2) . ?
 O6 C25 1.274(2) . ?
 O1 C61 1.273(2) . ?
 O3 C43 1.265(2) . ?
 O5 C27 1.265(3) . ?
 C12 C11 1.403(2) . ?
 C12 C7 1.401(2) . ?
 C12 C59 1.498(2) . ?
 N1 C35 1.343(2) . ?
 N1 C37 1.3483(18) . ?
 N2 C31 1.341(2) . ?
 N2 C34 1.3537(19) . ?
 C35 H35 1.091(4) . ?
 C35 C40 1.394(2) . ?
 C9 H9 1.087(4) . ?
 C9 C10 1.396(2) . ?
 C9 C8 1.399(2) . ?
 C23 C24 1.410(2) . ?
 C23 C22 1.402(2) . ?
 C23 C25 1.502(2) . ?
 C50 H50 1.087(4) . ?
 C50 C51 1.403(2) . ?
 C50 C53 1.392(2) . ?
 C41 H41 1.087(4) . ?
 C41 C49 1.395(2) . ?
 C41 C45 1.401(2) . ?
 C44 C45 1.498(2) . ?
 C44 C42 1.411(2) . ?
 C46 H46 1.089(4) . ?
 C46 C45 1.407(2) . ?
 C46 C47 1.395(2) . ?
 C5 H5 1.086(4) . ?
 C5 C6 1.398(3) . ?
 C5 C4 1.400(2) . ?
 C10 H10 1.090(4) . ?
 C10 C11 1.396(2) . ?
 C3 H3 1.084(4) . ?
 C3 C4 1.396(2) . ?
 C3 C1 1.406(2) . ?
 C61 C60 1.407(2) . ?
 C61 C1 1.501(2) . ?
 C40 H40 1.087(4) . ?
 C40 C39 1.394(2) . ?
 C16 H16 1.091(5) . ?
 C16 C15 1.398(3) . ?
 C16 C17 1.394(3) . ?
 C13 H13 1.084(4) . ?
 C13 C18 1.396(2) . ?
 C13 C14 1.400(2) . ?
 C11 H11 1.085(4) . ?
 C19 H19 1.089(4) . ?
 C19 C20 1.398(3) . ?
 C19 C21 1.397(3) . ?
 C51 C52 1.399(2) . ?
 C51 C43 1.504(2) . ?
 C27 C18 1.506(2) . ?
 C27 C26 1.414(2) . ?
 C31 H31 1.085(4) . ?
 C31 C28 1.394(2) . ?
 C60 H60 1.080(4) . ?
 C60 C59 1.410(2) . ?
 C52 H52 1.086(4) . ?
 C52 C55 1.397(2) . ?
 C24 H24 1.086(4) . ?
 C24 C20 1.393(2) . ?
 C22 H22 1.086(4) . ?
 C22 C21 1.399(2) . ?
 C6 H6 1.087(4) . ?
 C6 C2 1.397(2) . ?
 C43 C42 1.413(2) . ?
 C20 H20 1.092(4) . ?
 C15 H15 1.088(5) . ?
 C15 C14 1.397(3) . ?
 C8 H8 1.083(4) . ?
 C8 C7 1.390(2) . ?
 C49 H49 1.089(4) . ?
 C49 C48 1.399(2) . ?
 C55 H55 1.089(4) . ?
 C55 C54 1.393(3) . ?
 C7 H7 1.085(4) . ?
 C18 C17 1.406(2) . ?
 C4 H4 1.081(5) . ?
 C29 H29 1.093(4) . ?
 C29 C28 1.393(2) . ?
 C29 C30 1.391(2) . ?
 C54 H54 1.087(4) . ?
 C54 C53 1.397(2) . ?
 C53 H53 1.092(5) . ?
 C38 H38 1.087(4) . ?
 C38 C39 1.390(2) . ?
 C38 C37 1.402(2) . ?
 C48 H48 1.084(5) . ?
 C48 C47 1.397(2) . ?
 C21 H21 1.093(4) . ?
 C47 H47 1.088(4) . ?
 C17 H17 1.092(4) . ?
 C28 H28 1.084(4) . ?
 C42 H42 1.081(4) . ?
 C26 H26 1.075(4) . ?
 C26 C25 1.414(2) . ?
 C1 C2 1.403(2) . ?
 C39 H39 1.083(4) . ?
 C34 C37 1.481(2) . ?
 C34 C30 1.393(2) . ?
 C2 H2 1.087(4) . ?
 C30 H30 1.079(4) . ?
 C14 H14 1.082(4) . ?

loop_
  _geom_angle_atom_site_label_1
  _geom_angle_atom_site_label_2
  _geom_angle_atom_site_label_3
  _geom_angle
  _geom_angle_site_symmetry_1
  _geom_angle_site_symmetry_3
  _geom_angle_publ_flag
 O4 Dy1 O2 142.59(7) . . ?
 O4 Dy1 O6 74.69(7) . . ?
 O4 Dy1 O3 71.05(7) . . ?
 O4 Dy1 O5 119.59(7) . . ?
 O4 Dy1 N1 78.17(5) . . ?
 O4 Dy1 N2 137.98(6) . . ?
 O2 Dy1 O6 139.27(8) . . ?
 O2 Dy1 O3 78.76(7) . . ?
 O2 Dy1 O5 73.90(7) . . ?
 O2 Dy1 N1 120.68(5) . . ?
 O2 Dy1 N2 76.13(5) . . ?
 O6 Dy1 O3 112.83(7) . . ?
 O6 Dy1 N1 72.61(6) . . ?
 O6 Dy1 N2 77.99(6) . . ?
 O1 Dy1 O4 86.92(7) . . ?
 O1 Dy1 O2 73.05(7) . . ?
 O1 Dy1 O6 140.04(8) . . ?
 O1 Dy1 O3 93.31(7) . . ?
 O1 Dy1 O5 146.91(7) . . ?
 O1 Dy1 N1 68.99(5) . . ?
 O1 Dy1 N2 94.24(5) . . ?
 O3 Dy1 N1 145.30(6) . . ?
 O3 Dy1 N2 150.34(6) . . ?
 O5 Dy1 O6 70.74(7) . . ?
 O5 Dy1 O3 78.87(7) . . ?
 O5 Dy1 N1 131.87(6) . . ?
 O5 Dy1 N2 79.20(5) . . ?
 N2 Dy1 N1 63.42(4) . . ?
 C44 O4 Dy1 135.20(14) . . ?
 C59 O2 Dy1 135.50(14) . . ?
 C25 O6 Dy1 134.99(17) . . ?
 C61 O1 Dy1 136.51(14) . . ?
 C43 O3 Dy1 137.73(14) . . ?
 C27 O5 Dy1 137.54(14) . . ?
 C11 C12 C59 123.12(14) . . ?
 C7 C12 C11 118.84(15) . . ?
 C7 C12 C59 118.04(14) . . ?
 C35 N1 Dy1 119.97(9) . . ?
 C35 N1 C37 118.35(12) . . ?
 C37 N1 Dy1 121.13(10) . . ?
 C31 N2 Dy1 120.03(9) . . ?
 C31 N2 C34 118.36(12) . . ?
 C34 N2 Dy1 121.28(10) . . ?
 N1 C35 C40 123.39(14) . . ?
 H35 C35 N1 115.1(3) . . ?
 H35 C35 C40 121.5(3) . . ?
 H9 C9 C10 120.3(3) . . ?
 H9 C9 C8 120.2(3) . . ?
 C10 C9 C8 119.46(15) . . ?
 C24 C23 C25 117.53(14) . . ?
 C22 C23 C24 118.85(15) . . ?
 C22 C23 C25 123.62(15) . . ?
 H50 C50 C51 117.5(3) . . ?
 H50 C50 C53 121.2(3) . . ?
 C53 C50 C51 121.27(14) . . ?
 H41 C41 C49 119.1(3) . . ?
 H41 C41 C45 120.3(3) . . ?
 C49 C41 C45 120.56(15) . . ?
 O4 C44 C45 116.06(15) . . ?
 O4 C44 C42 124.38(16) . . ?
 C42 C44 C45 119.55(13) . . ?
 H46 C46 C45 118.5(3) . . ?
 H46 C46 C47 121.0(3) . . ?
 C47 C46 C45 120.48(14) . . ?
 H5 C5 C6 119.7(3) . . ?
 H5 C5 C4 120.4(3) . . ?
 C6 C5 C4 119.86(15) . . ?
 H10 C10 C9 120.3(3) . . ?
 H10 C10 C11 119.3(3) . . ?
 C11 C10 C9 120.41(15) . . ?
 H3 C3 C4 120.8(3) . . ?
 H3 C3 C1 118.6(3) . . ?
 C4 C3 C1 120.55(15) . . ?
 O1 C61 C60 124.64(16) . . ?
 O1 C61 C1 116.67(15) . . ?
 C60 C61 C1 118.67(13) . . ?
 C35 C40 C39 118.09(15) . . ?
 H40 C40 C35 119.7(3) . . ?
 H40 C40 C39 122.2(3) . . ?
 H16 C16 C15 120.0(3) . . ?
 H16 C16 C17 119.8(3) . . ?
 C17 C16 C15 120.17(17) . . ?
 H13 C13 C18 120.6(3) . . ?
 H13 C13 C14 118.8(3) . . ?
 C18 C13 C14 120.58(16) . . ?
 C10 C11 C12 120.30(15) . . ?
 H11 C11 C12 120.7(3) . . ?
 H11 C11 C10 119.0(3) . . ?
 H19 C19 C20 120.3(3) . . ?
 H19 C19 C21 120.2(3) . . ?
 C21 C19 C20 119.51(16) . . ?
 C50 C51 C43 117.20(13) . . ?
 C52 C51 C50 118.57(15) . . ?
 C52 C51 C43 124.23(15) . . ?
 O5 C27 C18 115.91(16) . . ?
 O5 C27 C26 124.13(16) . . ?
 C26 C27 C18 119.92(15) . . ?
 N2 C31 C28 123.25(15) . . ?
 H31 C31 N2 115.7(3) . . ?
 H31 C31 C28 121.1(3) . . ?
 C61 C60 C59 123.16(14) . . ?
 H60 C60 C61 118.3(3) . . ?
 H60 C60 C59 118.5(3) . . ?
 H52 C52 C51 120.9(3) . . ?
 H52 C52 C55 118.8(3) . . ?
 C55 C52 C51 120.21(16) . . ?
 H24 C24 C23 118.2(3) . . ?
 H24 C24 C20 121.1(3) . . ?
 C20 C24 C23 120.70(16) . . ?
 H22 C22 C23 120.4(3) . . ?
 H22 C22 C21 119.4(3) . . ?
 C21 C22 C23 120.21(15) . . ?
 H6 C6 C5 120.0(3) . . ?
 H6 C6 C2 119.7(3) . . ?
 C2 C6 C5 120.29(15) . . ?
 O3 C43 C51 116.33(15) . . ?
 O3 C43 C42 123.35(16) . . ?
 C42 C43 C51 120.31(13) . . ?
 C24 C20 C19 120.14(16) . . ?
 H20 C20 C19 120.2(3) . . ?
 H20 C20 C24 119.6(3) . . ?
 H15 C15 C16 120.6(3) . . ?
 H15 C15 C14 119.7(3) . . ?
 C14 C15 C16 119.73(17) . . ?
 H8 C8 C9 120.9(3) . . ?
 H8 C8 C7 119.0(3) . . ?
 C7 C8 C9 120.11(15) . . ?
 C41 C49 C48 120.12(15) . . ?
 H49 C49 C41 120.0(3) . . ?
 H49 C49 C48 119.8(3) . . ?
 H55 C55 C52 119.3(3) . . ?
 H55 C55 C54 120.0(3) . . ?
 C54 C55 C52 120.71(15) . . ?
 C8 C7 C12 120.86(15) . . ?
 H7 C7 C12 118.5(3) . . ?
 H7 C7 C8 120.7(3) . . ?
 C13 C18 C27 122.99(15) . . ?
 C13 C18 C17 119.04(16) . . ?
 C17 C18 C27 117.94(14) . . ?
 C41 C45 C44 123.12(14) . . ?
 C41 C45 C46 118.95(15) . . ?
 C46 C45 C44 117.90(13) . . ?
 C3 C4 C5 119.89(16) . . ?
 H4 C4 C5 120.4(3) . . ?
 H4 C4 C3 119.7(3) . . ?
 H29 C29 C28 121.6(3) . . ?
 H29 C29 C30 119.6(3) . . ?
 C30 C29 C28 118.77(14) . . ?
 C55 C54 C53 119.53(15) . . ?
 H54 C54 C55 120.6(3) . . ?
 H54 C54 C53 119.9(3) . . ?
 C50 C53 C54 119.68(16) . . ?
 H53 C53 C50 119.8(3) . . ?
 H53 C53 C54 120.6(3) . . ?
 H38 C38 C39 119.5(3) . . ?
 H38 C38 C37 121.4(3) . . ?
 C39 C38 C37 119.11(14) . . ?
 O2 C59 C12 116.34(15) . . ?
 O2 C59 C60 124.40(16) . . ?
 C60 C59 C12 119.25(13) . . ?
 H48 C48 C49 119.2(3) . . ?
 H48 C48 C47 121.0(3) . . ?
 C47 C48 C49 119.79(16) . . ?
 C19 C21 C22 120.58(16) . . ?
 H21 C21 C19 120.1(3) . . ?
 H21 C21 C22 119.3(3) . . ?
 C46 C47 C48 120.07(16) . . ?
 H47 C47 C46 119.9(3) . . ?
 H47 C47 C48 120.0(3) . . ?
 C16 C17 C18 120.44(15) . . ?
 H17 C17 C16 121.2(3) . . ?
 H17 C17 C18 118.3(3) . . ?
 C29 C28 C31 118.30(16) . . ?
 H28 C28 C31 120.4(3) . . ?
 H28 C28 C29 121.3(3) . . ?
 C44 C42 C43 122.48(13) . . ?
 H42 C42 C44 118.8(3) . . ?
 H42 C42 C43 118.7(3) . . ?
 H26 C26 C27 119.4(3) . . ?
 H26 C26 C25 118.8(3) . . ?
 C25 C26 C27 121.77(15) . . ?
 C3 C1 C61 118.76(14) . . ?
 C2 C1 C3 119.14(15) . . ?
 C2 C1 C61 122.08(15) . . ?
 C38 C39 C40 119.14(15) . . ?
 H39 C39 C40 121.2(3) . . ?
 H39 C39 C38 119.6(3) . . ?
 N2 C34 C37 116.94(13) . . ?
 N2 C34 C30 121.72(15) . . ?
 C30 C34 C37 121.34(14) . . ?
 C6 C2 C1 120.19(16) . . ?
 H2 C2 C6 119.8(3) . . ?
 H2 C2 C1 120.0(3) . . ?
 N1 C37 C38 121.90(14) . . ?
 N1 C37 C34 116.37(13) . . ?
 C38 C37 C34 121.72(13) . . ?
 C29 C30 C34 119.59(15) . . ?
 H30 C30 C29 119.8(3) . . ?
 H30 C30 C34 120.6(3) . . ?
 C15 C14 C13 120.02(16) . . ?
 H14 C14 C13 120.0(3) . . ?
 H14 C14 C15 119.9(3) . . ?
 O6 C25 C23 115.63(17) . . ?
 O6 C25 C26 123.82(17) . . ?
 C26 C25 C23 120.54(14) . . ?

_shelx_res_file
;
    15k_total.res created by SHELXL-2014/7

TITL
CELL 0.71073 13.22479 22.13227 16.05547 90 109.6464 90
ZERR 4 0.00045 0.00064 0.00055 0 0.0077 0
LATT 1
SYMM -X,0.5+Y,0.5-Z
NEUT
SFAC C H Dy N O
UNIT 220 164 4 8 24

L.S. 10
PLAN  20
fmap 2
acta
MERG 0
OMIT -5 18 3
OMIT -12 18 13
REM <olex2.extras>
REM <HklSrc "%.\\15K_total.hkl">
REM </olex2.extras>

WGHT    0.042500   50.299198
BASF   0.87904
FVAR       0.26403
DY1   3    0.787463    0.660243    0.897446    11.00000    0.00549    0.00559 =
         0.00532    0.00008    0.00229    0.00001
O4    5    0.620554    0.637299    0.795249    11.00000    0.00950    0.01275 =
         0.00876   -0.00215    0.00325    0.00062
O2    5    0.956645    0.619810    0.969080    11.00000    0.00907    0.01060 =
         0.01055    0.00229    0.00410    0.00030
O6    5    0.708535    0.753237    0.845837    11.00000    0.01104    0.00836 =
         0.01275    0.00138    0.00482    0.00046
O1    5    0.764022    0.578347    0.976943    11.00000    0.00852    0.00953 =
         0.00975    0.00160    0.00262    0.00007
O3    5    0.811553    0.600080    0.785124    11.00000    0.00960    0.01177 =
         0.00825   -0.00161    0.00313    0.00084
O5    5    0.907335    0.718880    0.854557    11.00000    0.01072    0.00873 =
         0.01332    0.00156    0.00706    0.00012
C12   1    1.116981    0.583442    1.072814    11.00000    0.00842    0.00842 =
         0.00927    0.00029    0.00293   -0.00036
N1    4    0.660788    0.686183    0.984365    11.00000    0.00882    0.01053 =
         0.00865   -0.00122    0.00400   -0.00136
N2    4    0.864707    0.727666    1.033908    11.00000    0.00831    0.01142 =
         0.00906   -0.00210    0.00405   -0.00118
C35   1    0.562899    0.660861    0.961371    11.00000    0.00842    0.01309 =
         0.00944   -0.00286    0.00361   -0.00189
H35   2    0.539211    0.635109    0.899896    11.00000    0.02436    0.03124 =
         0.02134   -0.01277    0.00899   -0.00808
C9    1    1.342151    0.588156    1.145282    11.00000    0.00808    0.01191 =
         0.01446    0.00122    0.00308    0.00072
H9    2    1.429148    0.590133    1.173630    11.00000    0.01296    0.03058 =
         0.03523    0.00435    0.00468   -0.00133
C23   1    0.667957    0.856598    0.847864    11.00000    0.01131    0.00947 =
         0.01035    0.00064    0.00501    0.00090
C50   1    0.923232    0.532996    0.704469    11.00000    0.00967    0.01251 =
         0.00917   -0.00041    0.00325    0.00304
H50   2    0.957503    0.548329    0.772511    11.00000    0.02355    0.03387 =
         0.01479   -0.00395    0.00298    0.00436
C41   1    0.410384    0.616455    0.583188    11.00000    0.01001    0.01373 =
         0.00903   -0.00099    0.00201    0.00049
H41   2    0.443610    0.580388    0.554358    11.00000    0.02443    0.02837 =
         0.02488   -0.00896    0.00604    0.00605
C44   1    0.585407    0.624774    0.713181    11.00000    0.00790    0.01080 =
         0.00822   -0.00008    0.00336    0.00015
C46   1    0.424581    0.687210    0.701402    11.00000    0.00968    0.01069 =
         0.01135   -0.00008    0.00373    0.00117
H46   2    0.472613    0.707179    0.764256    11.00000    0.02696    0.02574 =
         0.02113   -0.00759    0.00482    0.00136
C5    1    0.661938    0.428231    1.168031    11.00000    0.01336    0.01279 =
         0.01188    0.00132    0.00618   -0.00269
H5    2    0.622664    0.400049    1.203424    11.00000    0.03008    0.02966 =
         0.03269    0.01048    0.01776   -0.00286
C10   1    1.286862    0.536925    1.157143    11.00000    0.00892    0.01169 =
         0.01186    0.00111    0.00239    0.00109
H10   2    1.330788    0.497965    1.193095    11.00000    0.01918    0.02174 =
         0.03574    0.01003    0.00546    0.00518
C3    1    0.663214    0.516656    1.079780    11.00000    0.01057    0.01108 =
         0.01271    0.00222    0.00582    0.00016
H3    2    0.624903    0.556987    1.044961    11.00000    0.02408    0.02217 =
         0.03808    0.01135    0.01328    0.00787
C61   1    0.823491    0.545232    1.038918    11.00000    0.00748    0.00907 =
         0.00859    0.00115    0.00281   -0.00110
C40   1    0.495638    0.666028    1.011737    11.00000    0.00944    0.01421 =
         0.01175   -0.00300    0.00475   -0.00255
H40   2    0.418099    0.643496    0.990167    11.00000    0.01762    0.03718 =
         0.02873   -0.00967    0.00891   -0.00978
C16   1    1.209317    0.759981    0.848679    11.00000    0.01032    0.01389 =
         0.01416    0.00093    0.00482    0.00030
H16   2    1.274102    0.726914    0.870858    11.00000    0.02145    0.02765 =
         0.04147    0.00525    0.01100    0.00762
C13   1    1.043379    0.844383    0.792671    11.00000    0.01138    0.01138 =
         0.01332    0.00269    0.00612   -0.00042
H13   2    0.979209    0.877143    0.768554    11.00000    0.02570    0.02222 =
         0.04151    0.01056    0.01584    0.00848
C11   1    1.175004    0.534509    1.121462    11.00000    0.00903    0.00940 =
         0.01015    0.00073    0.00308    0.00040
H11   2    1.134091    0.493768    1.130230    11.00000    0.02416    0.01781 =
         0.03149    0.00402    0.00858   -0.00430
C19   1    0.523477    0.945955    0.862638    11.00000    0.01295    0.01207 =
         0.01388    0.00015    0.00460    0.00331
H19   2    0.466962    0.980471    0.867299    11.00000    0.02770    0.02387 =
         0.03765   -0.00004    0.01618    0.00972
C51   1    0.816255    0.548697    0.657997    11.00000    0.00846    0.01141 =
         0.00860   -0.00139    0.00287    0.00072
C27   1    0.921108    0.774210    0.841868    11.00000    0.01021    0.00791 =
         0.01030    0.00086    0.00480   -0.00040
C31   1    0.963983    0.750519    1.053844    11.00000    0.00882    0.01223 =
         0.01200   -0.00288    0.00490   -0.00196
H31   2    1.009940    0.734445    1.013579    11.00000    0.02339    0.03508 =
         0.02532   -0.00922    0.01485   -0.00201
C60   1    0.936386    0.547522    1.071332    11.00000    0.00788    0.01085 =
         0.01065    0.00264    0.00295   -0.00033
H60   2    0.978576    0.519832    1.127678    11.00000    0.01830    0.03046 =
         0.02174    0.01216    0.00375    0.00200
C52   1    0.771826    0.531667    0.569215    11.00000    0.01147    0.01620 =
         0.00885   -0.00320    0.00260    0.00238
H52   2    0.690320    0.544298    0.530186    11.00000    0.02000    0.04173 =
         0.02482   -0.00716    0.00238    0.00807
C24   1    0.585985    0.842499    0.882531    11.00000    0.01061    0.01131 =
         0.01450    0.00074    0.00594    0.00096
H24   2    0.580291    0.796321    0.903447    11.00000    0.03139    0.01540 =
         0.04000    0.00505    0.01905    0.00292
C22   1    0.675568    0.915848    0.819700    11.00000    0.01267    0.00965 =
         0.01258    0.00241    0.00593    0.00273
H22   2    0.735645    0.927453    0.789994    11.00000    0.03298    0.02376 =
         0.03931    0.00514    0.02447    0.00188
C6    1    0.764282    0.412816    1.167682    11.00000    0.01288    0.01079 =
         0.01266    0.00252    0.00459   -0.00120
H6    2    0.803454    0.372153    1.201287    11.00000    0.02737    0.02337 =
         0.03525    0.01194    0.01004    0.00496
C43   1    0.757146    0.583761    0.707468    11.00000    0.00755    0.01006 =
         0.00786    0.00003    0.00241    0.00068
C20   1    0.514846    0.886825    0.890163    11.00000    0.01065    0.01281 =
         0.01471   -0.00031    0.00600    0.00113
H20   2    0.452002    0.875052    0.917314    11.00000    0.02555    0.02687 =
         0.04062   -0.00017    0.02124   -0.00131
C15   1    1.225663    0.814328    0.810741    11.00000    0.01154    0.01442 =
         0.01500   -0.00053    0.00664   -0.00294
H15   2    1.302346    0.823894    0.802341    11.00000    0.02033    0.03552 =
         0.03915    0.00231    0.01527   -0.00518
C8    1    1.284649    0.636840    1.096159    11.00000    0.00922    0.01065 =
         0.01388    0.00068    0.00371   -0.00166
H8    2    1.325648    0.677112    1.086121    11.00000    0.01857    0.02546 =
         0.03869    0.00797    0.00804   -0.00505
C49   1    0.306314    0.636675    0.538420    11.00000    0.00949    0.01818 =
         0.01000    0.00001    0.00139    0.00202
H49   2    0.259890    0.616817    0.475043    11.00000    0.02513    0.04244 =
         0.01955   -0.00832   -0.00066   -0.00002
C55   1    0.832663    0.498597    0.528912    11.00000    0.01418    0.01841 =
         0.00954   -0.00360    0.00416    0.00347
H55   2    0.797063    0.486021    0.459580    11.00000    0.03257    0.04268 =
         0.01767   -0.01131    0.00394    0.00733
C7    1    1.173356    0.634140    1.059783    11.00000    0.00825    0.00984 =
         0.01204    0.00177    0.00337    0.00026
H7    2    1.128083    0.671460    1.020967    11.00000    0.02007    0.02317 =
         0.03325    0.01124    0.00573    0.00442
C18   1    1.026579    0.790302    0.830867    11.00000    0.01026    0.00923 =
         0.01056    0.00102    0.00531   -0.00035
C45   1    0.471216    0.642015    0.664384    11.00000    0.00861    0.01050 =
         0.00827   -0.00003    0.00254    0.00087
C4    1    0.610681    0.479825    1.122834    11.00000    0.01146    0.01303 =
         0.01388    0.00135    0.00656   -0.00082
H4    2    0.530698    0.491530    1.121347    11.00000    0.01962    0.03247 =
         0.03886    0.00721    0.01661    0.00226
C29   1    0.943932    0.811482    1.170399    11.00000    0.00984    0.01214 =
         0.01107   -0.00351    0.00343   -0.00188
H29   2    0.973846    0.843716    1.224700    11.00000    0.02777    0.03073 =
         0.02547   -0.01523    0.00743   -0.00662
C54   1    0.937937    0.481937    0.576353    11.00000    0.01349    0.01507 =
         0.01070   -0.00183    0.00577    0.00346
H54   2    0.984643    0.455571    0.545153    11.00000    0.03066    0.03501 =
         0.02615   -0.00720    0.01486    0.00801
C53   1    0.983902    0.499937    0.664442    11.00000    0.01145    0.01346 =
         0.01188   -0.00056    0.00494    0.00282
H53   2    1.066867    0.488100    0.702267    11.00000    0.01801    0.03747 =
         0.02904   -0.00331    0.00592    0.00644
C38   1    0.633421    0.725545    1.114724    11.00000    0.00987    0.01596 =
         0.01028   -0.00391    0.00551   -0.00199
H38   2    0.663360    0.750350    1.176645    11.00000    0.02742    0.03588 =
         0.02180   -0.01383    0.01028   -0.01048
C59   1    0.996923    0.584270    1.033835    11.00000    0.00783    0.00962 =
         0.00829    0.00123    0.00322   -0.00008
C48   1    0.261081    0.682220    0.575052    11.00000    0.01136    0.01920 =
         0.01273    0.00308    0.00423    0.00378
H48   2    0.180780    0.698094    0.538798    11.00000    0.02042    0.04524 =
         0.03100    0.00293    0.00610    0.01224
C21   1    0.603761    0.960150    0.827309    11.00000    0.01466    0.00973 =
         0.01393    0.00100    0.00539    0.00302
H21   2    0.610382    1.006072    0.804643    11.00000    0.03486    0.01817 =
         0.03727    0.00678    0.01775    0.00341
C47   1    0.320044    0.706948    0.657121    11.00000    0.01087    0.01440 =
         0.01330    0.00188    0.00479    0.00408
H47   2    0.284734    0.741976    0.686196    11.00000    0.02654    0.03270 =
         0.03003   -0.00464    0.01003    0.01361
C17   1    1.110360    0.747831    0.858261    11.00000    0.00932    0.01078 =
         0.01247    0.00104    0.00473    0.00013
H17   2    1.095414    0.705124    0.886124    11.00000    0.02549    0.02050 =
         0.03280    0.01024    0.01250    0.00178
C28   1    1.007249    0.792314    1.121481    11.00000    0.00957    0.01197 =
         0.01215   -0.00328    0.00406   -0.00246
H28   2    1.088046    0.809321    1.135033    11.00000    0.01614    0.03486 =
         0.03337   -0.01073    0.00986   -0.00891
C42   1    0.647059    0.597416    0.666892    11.00000    0.00827    0.01264 =
         0.00867   -0.00136    0.00297    0.00162
H42   2    0.609242    0.587626    0.597313    11.00000    0.02386    0.03815 =
         0.01779   -0.00745    0.00504    0.00217
C26   1    0.846246    0.820163    0.840439    11.00000    0.01022    0.00858 =
         0.01559    0.00025    0.00637    0.00000
H26   2    0.868666    0.866704    0.838466    11.00000    0.02844    0.01523 =
         0.04184    0.00171    0.01756   -0.00162
C1    1    0.767416    0.502399    1.081334    11.00000    0.00791    0.00978 =
         0.00969    0.00114    0.00407   -0.00064
C39   1    0.532565    0.698752    1.090389    11.00000    0.01090    0.01746 =
         0.01272   -0.00492    0.00664   -0.00327
H39   2    0.484527    0.703260    1.133001    11.00000    0.02853    0.04474 =
         0.03157   -0.01539    0.02127   -0.00961
C34   1    0.803656    0.745917    1.082062    11.00000    0.00808    0.00975 =
         0.00839   -0.00185    0.00270   -0.00126
C2    1    0.816504    0.449311    1.123838    11.00000    0.01061    0.00937 =
         0.01090    0.00283    0.00342    0.00051
H2    2    0.894348    0.435836    1.121102    11.00000    0.01939    0.02576 =
         0.03194    0.00691    0.01073    0.00494
C37   1    0.695491    0.718673    1.059717    11.00000    0.00698    0.01003 =
         0.00933   -0.00147    0.00351   -0.00066
C30   1    0.840842    0.788042    1.150019    11.00000    0.00980    0.01152 =
         0.01127   -0.00376    0.00447   -0.00113
H30   2    0.790836    0.802216    1.187460    11.00000    0.02289    0.03353 =
         0.02720   -0.01021    0.01461   -0.00101
C14   1    1.142543    0.856567    0.782728    11.00000    0.01308    0.01317 =
         0.01628    0.00151    0.00789   -0.00227
H14   2    1.154601    0.898442    0.752600    11.00000    0.03307    0.02623 =
         0.03996    0.01306    0.01796   -0.00336
C25   1    0.743295    0.806719    0.844014    11.00000    0.00882    0.00795 =
         0.01114    0.00101    0.00487    0.00045
HKLF 4

REM
REM R1 =  0.0554 for   14005 Fo > 4sig(Fo)  and  0.1396 for all   22109 data
REM    947 parameters refined using      0 restraints

END

WGHT      0.0426     50.2382

REM Highest difference peak  1.583,  deepest hole -1.682,  1-sigma level  0.353
Q1    1   1.0875  0.4802  1.1196  11.00000  0.05    1.58
Q2    1   0.7608  0.6888  1.0269  11.00000  0.05    1.57
Q3    1   0.7898  0.4015  1.3069  11.00000  0.05    1.57
Q4    1   0.4704  1.0511  0.8557  11.00000  0.05    1.55
Q5    1   0.4762  0.6352  0.5523  11.00000  0.05    1.46
Q6    1   0.4435  0.6393  0.5928  11.00000  0.05    1.46
Q7    1   0.4993  0.5299  1.1178  11.00000  0.05    1.44
Q8    1   0.8000  0.6435  0.9201  11.00000  0.05    1.43
Q9    1   0.9420  0.8362  0.6888  11.00000  0.05    1.41
Q10   1   0.6192  0.8664  0.9879  11.00000  0.05    1.40
Q11   1   1.1711  0.6978  0.8000  11.00000  0.05    1.40
Q12   1   0.7477  0.5847  1.1631  11.00000  0.05    1.40
Q13   1   0.5601  0.7013  0.9309  11.00000  0.05    1.39
Q14   1   0.9546  0.6163  0.8906  11.00000  0.05    1.39
Q15   1   0.4455  0.4903  1.1006  11.00000  0.05    1.39
Q16   1   1.1211  0.8615  0.8720  11.00000  0.05    1.38
Q17   1   1.0432  0.8787  1.2988  11.00000  0.05    1.36
Q18   1   0.8405  0.7665  0.7408  11.00000  0.05    1.36
Q19   1   0.8298  0.9055  0.9492  11.00000  0.05    1.36
Q20   1   1.2196  0.6841  1.0626  11.00000  0.05    1.34
;
_shelx_res_checksum               79852
_shelx_hkl_file
;
   0   3   1    26.0     1.1   1
   0   4   1   293.9    13.6   1
   0   5   3  2123.0    31.8   1
   0   5   4  1759.0    32.7   1
   0   6   5   884.9    13.2   1
   0   6   7  1184.0    27.8   1
   0   7   1   593.1    10.0   1
   0   7   2    70.9    16.8   1
   0   7   4  1683.6   151.7   1
   0   7   5   143.5     7.8   1
   0   7   6    71.7     5.9   1
   0   8   1   126.6     5.0   1
   0   8   5   391.3    44.3   1
   0   8   7    57.3     9.5   1
   0   9   1   354.9     7.2   1
   0   9   2    77.5     7.1   1
   0   9   7  1692.7    55.8   1
   0   9   8   692.4    25.2   1
   0  10   1   321.6     5.8   1
   0  10   9   577.5    40.6   1
   0  11   1    33.4     4.1   1
   0  11   2  7030.1   200.3   1
   0  11  10   -22.2    67.2   1
   0  12   1  1063.5    12.1   1
   0  13   1   713.3    11.3   1
   0  13   2  2884.5    75.7   1
   0  14   1   270.7    10.4   1
   0  15   1   885.8    20.0   1
   0  15   2    11.0    24.3   1
   0  16   1   146.8    17.2   1
   0  17   1   258.0    20.8   1
   0  17   2   179.5    27.6   1
   0  18   1    29.0    34.9   1
   0  19   1   311.7    54.2   1
   1   0 -18   687.6    48.4   1
   1   0 -16   318.3    27.5   1
   1   0 -14   815.7    26.1   1
   1   0  11   -27.0    15.4   1
   1   0  12   467.0    24.1   1
   1   0  14   496.5    23.5   1
   1   0  15     0.1    24.7   1
   1   0  16    -7.3    31.8   1
   1   0  17   -23.4    39.3   1
   1   0  18    -6.0    53.8   1
   1   1 -25    95.1   218.9   1
   1   1 -19     3.9    44.3   1
   1   1 -18   779.6    33.7   1
   1   1 -16  2775.2    40.0   1
   1   1 -14  2505.5    35.7   1
   1   1 -13  1694.0    32.5   1
   1   1 -12    16.6    13.1   1
   1   1 -11   460.5    16.0   1
   1   1   7   159.2     8.2   1
   1   1   8     5.7     7.1   1
   1   1   9    52.4    10.8   1
   1   1  10     4.1    11.4   1
   1   1  11  1507.2    25.8   1
   1   1  12   111.8    14.7   1
   1   1  13    86.9    15.0   1
   1   1  14   742.0    22.8   1
   1   1  15  1227.3    26.7   1
   1   1  16    23.9    30.9   1
   1   1  17   381.3    30.6   1
   1   1  18   148.6    38.7   1
   1   1  21  1961.2   119.0   1
   1   2 -22   477.5    73.4   1
   1   2 -21   -49.1    51.6   1
   1   2 -20   391.8    40.9   1
   1   2 -19   130.1    31.1   1
   1   2 -18    19.2    28.6   1
   1   2 -17   995.3    27.7   1
   1   2 -16    34.5    21.5   1
   1   2 -15   196.5    18.0   1
   1   2 -14   134.3    16.4   1
   1   2 -13  2600.9    43.4   1
   1   2 -12    18.4    14.8   1
   1   2 -11    18.2    10.9   1
   1   2  -3  1181.7    30.2   1
   1   2   8   321.8    11.9   1
   1   2   9  5335.2    76.3   1
   1   2  10   348.0    13.5   1
   1   2  11   497.1    14.9   1
   1   2  12    22.5    13.5   1
   1   2  13    73.9    14.4   1
   1   2  14   283.3    17.2   1
   1   2  15   387.3    20.2   1
   1   2  16    81.8    25.0   1
   1   2  17   233.7    27.0   1
   1   2  18   319.3    31.7   1
   1   2  19    68.8    42.2   1
   1   2  20   406.8    56.7   1
   1   3 -25  1020.3   144.5   1
   1   3 -24   281.6   109.2   1
   1   3 -23   697.4    87.0   1
   1   3 -22    56.3    62.5   1
   1   3 -21   158.2    49.8   1
   1   3 -20   -18.8    39.3   1
   1   3 -19    -9.8    31.2   1
   1   3 -18    25.1    25.2   1
   1   3 -17     4.7    21.3   1
   1   3 -16    62.8    18.8   1
   1   3 -15   144.4    19.6   1
   1   3 -14   -26.2    15.5   1
   1   3 -13   295.0    17.3   1
   1   3 -12   213.2    14.0   1
   1   3 -11   436.6    15.3   1
   1   3 -10   397.4    14.9   1
   1   3  -9   271.3    11.3   1
   1   3   5   502.5    11.5   1
   1   3   6   294.5    13.0   1
   1   3   7   675.1    15.2   1
   1   3   8   845.2    16.9   1
   1   3   9   654.1    15.0   1
   1   3  10   812.8    19.1   1
   1   3  11  2716.3    44.2   1
   1   3  12   -24.6    19.4   1
   1   3  13   -12.3    17.9   1
   1   3  14    15.7    19.1   1
   1   3  15    -4.8    18.8   1
   1   3  16    99.2    23.4   1
   1   3  17    36.8    27.8   1
   1   3  18    63.4    35.7   1
   1   3  19    28.2    44.6   1
   1   3  20   -36.4    57.9   1
   1   3  21   -99.7    78.8   1
   1   3  23  2926.3   175.4   1
   1   4 -25   175.0   139.9   1
   1   4 -24  1429.0   120.6   1
   1   4 -23    92.2    81.4   1
   1   4 -22   188.5    64.3   1
   1   4 -21     2.6    50.3   1
   1   4 -20   808.8    45.2   1
   1   4 -19   352.3    34.3   1
   1   4 -18   107.5    27.5   1
   1   4 -17    33.1    24.0   1
   1   4 -16  1635.2    32.0   1
   1   4 -15   108.7    20.5   1
   1   4 -14    -8.7    18.7   1
   1   4 -13   593.2    22.0   1
   1   4 -12     5.4    14.2   1
   1   4 -11   824.3    20.8   1
   1   4 -10   964.8    22.8   1
   1   4  -9    26.0     9.5   1
   1   4  -8   158.6     8.7   1
   1   4  -4  8518.9   278.0   1
   1   4  -3  4830.4    86.5   1
   1   4  -2  9542.1   398.5   1
   1   4   6  2604.5    59.2   1
   1   4   7  1189.3    23.9   1
   1   4   8   485.6    14.5   1
   1   4   9     6.2     9.9   1
   1   4  10   662.8    20.5   1
   1   4  11   113.5    14.8   1
   1   4  12   663.9    21.8   1
   1   4  13   159.0    19.4   1
   1   4  14   -26.0    22.2   1
   1   4  15     7.7    22.2   1
   1   4  16   124.2    26.8   1
   1   4  17   985.6    38.5   1
   1   4  18   113.9    40.0   1
   1   4  19   805.8    52.3   1
   1   4  20   745.6    64.1   1
   1   4  21   783.4    85.3   1
   1   4  22   311.7   107.2   1
   1   4  23    -3.2   139.0   1
   1   5 -25   399.9   141.9   1
   1   5 -24   391.3   112.6   1
   1   5 -23   231.3    84.8   1
   1   5 -22   127.0    64.7   1
   1   5 -21  1409.2    61.5   1
   1   5 -20     8.0    42.0   1
   1   5 -19    -5.0    33.9   1
   1   5 -18   518.1    31.5   1
   1   5 -17    14.9    25.1   1
   1   5 -16   -15.4    20.7   1
   1   5 -15   -23.8    21.6   1
   1   5 -14   184.4    21.3   1
   1   5 -13   838.3    26.8   1
   1   5 -12   150.8    16.9   1
   1   5 -11   186.8    15.9   1
   1   5 -10   141.9    15.0   1
   1   5  -9  1147.2    24.4   1
   1   5  -8  3655.6    46.2   1
   1   5  -7    40.0     6.0   1
   1   5  -6   993.1    18.0   1
   1   5  -5   273.4     7.6   1
   1   5  -4  1259.6    26.1   1
   1   5  -3   319.6     6.9   1
   1   5  -2  3373.5    55.3   1
   1   5   4   448.9    11.1   1
   1   5   5    45.4     6.9   1
   1   5   7   126.6     8.6   1
   1   5   8  1663.2    24.5   1
   1   5   9   310.8    11.8   1
   1   5  10   339.4    15.1   1
   1   5  11   957.9    25.7   1
   1   5  12    29.5    18.6   1
   1   5  13  2170.5    40.4   1
   1   5  14    84.1    25.1   1
   1   5  15  2859.7    53.9   1
   1   5  16   435.1    30.1   1
   1   5  17    63.5    32.2   1
   1   5  18   -14.7    39.8   1
   1   5  19   -60.6    48.6   1
   1   5  20   121.1    63.0   1
   1   5  21  2602.3   112.9   1
   1   5  23  1623.8   153.6   1
   1   6 -25  2646.3   166.1   1
   1   6 -24  -162.9   111.8   1
   1   6 -23    -6.0    83.6   1
   1   6 -22   141.1    67.1   1
   1   6 -21   111.1    53.2   1
   1   6 -20   907.6    48.7   1
   1   6 -19   236.6    36.1   1
   1   6 -18   208.1    30.9   1
   1   6 -17    64.2    26.8   1
   1   6 -16   700.3    31.0   1
   1   6 -15    54.8    23.2   1
   1   6 -14     1.0    22.0   1
   1   6 -13   296.3    23.1   1
   1   6 -12   875.4    26.6   1
   1   6 -11   509.4    22.7   1
   1   6  -9   483.8    13.1   1
   1   6  -8   129.6     8.3   1
   1   6  -7   681.6    12.1   1
   1   6  -6   431.3     7.3   1
   1   6  -5   182.8     4.5   1
   1   6  -4   729.9    18.1   1
   1   6  -2   169.5     4.3   1
   1   6  -1     5.5     2.7   1
   1   6   0  1143.9    19.6   1
   1   6   1   749.0    13.1   1
   1   6   2  4106.5    66.3   1
   1   6   3   772.4    15.4   1
   1   6   4   103.6     6.6   1
   1   6   5   513.9    12.2   1
   1   6   6   336.8    11.0   1
   1   6   7   146.6     9.0   1
   1   6   8    42.5     8.8   1
   1   6   9   264.8    15.3   1
   1   6  10   506.3    18.9   1
   1   6  11    33.1    18.1   1
   1   6  12   372.8    22.8   1
   1   6  13   699.5    26.9   1
   1   6  14   105.8    25.9   1
   1   6  15   187.4    25.6   1
   1   6  16  1201.6    38.7   1
   1   6  17    42.1    33.5   1
   1   6  18  2006.2    61.5   1
   1   6  19   731.9    56.1   1
   1   6  20  1076.2    74.1   1
   1   6  21   171.6    82.2   1
   1   6  22   567.9   113.8   1
   1   6  23   -64.3   139.0   1
   1   6  24  -194.1   183.2   1
   1   7 -25  -125.2   145.7   1
   1   7 -24   203.4   115.6   1
   1   7 -23   -27.7    87.3   1
   1   7 -22   121.1    70.1   1
   1   7 -21   -44.6    54.8   1
   1   7 -20   628.9    48.2   1
   1   7 -19  2277.4    56.8   1
   1   7 -18    24.5    32.4   1
   1   7 -17    -7.9    28.0   1
   1   7 -16   322.2    26.7   1
   1   7 -15  3369.9    58.5   1
   1   7 -14   -57.8    23.9   1
   1   7 -13   772.5    30.5   1
   1   7 -12   574.8    23.3   1
   1   7 -11   971.2    31.7   1
   1   7 -10    27.9    15.0   1
   1   7  -9   101.0    12.6   1
   1   7  -8   648.3    15.1   1
   1   7  -7   730.8    10.6   1
   1   7  -6    31.0     5.5   1
   1   7  -5   150.7     9.4   1
   1   7  -2  2377.7    43.5   1
   1   7  -1   358.7     9.7   1
   1   7   0    45.2     3.7   1
   1   7   1   202.8     8.2   1
   1   7   2   357.4     6.2   1
   1   7   3   646.1    11.5   1
   1   7   4    63.9     4.4   1
   1   7   6    45.4     6.7   1
   1   7   7    69.7     9.1   1
   1   7   8   280.8    11.2   1
   1   7   9   876.0    20.8   1
   1   7  10   985.3    24.7   1
   1   7  11   102.4    18.5   1
   1   7  12  1818.2    40.8   1
   1   7  13    88.6    25.0   1
   1   7  14   -72.5    27.1   1
   1   7  15   -66.6    26.2   1
   1   7  16   775.1    36.1   1
   1   7  17  4150.8    70.6   1
   1   7  18   410.7    46.5   1
   1   7  19   430.5    55.4   1
   1   7  20   274.3    67.7   1
   1   7  21    29.3    84.7   1
   1   7  22   686.0   118.9   1
   1   7  23    -7.4   147.0   1
   1   7  24  -100.3   191.6   1
   1   8 -25   108.5   155.1   1
   1   8 -24   -13.1   121.1   1
   1   8 -23   164.3    89.0   1
   1   8 -22   306.2    74.0   1
   1   8 -21    46.4    57.1   1
   1   8 -20   -36.9    47.4   1
   1   8 -19   -52.2    39.1   1
   1   8 -18  1247.4    41.4   1
   1   8 -17   134.2    39.9   1
   1   8 -16   770.6    29.7   1
   1   8 -15   645.7    30.1   1
   1   8 -14   212.6    26.6   1
   1   8 -13  1031.6    34.8   1
   1   8 -12    32.2    22.1   1
   1   8 -11  1249.1    41.5   1
   1   8 -10    17.5    17.6   1
   1   8  -9    63.3    13.0   1
   1   8  -8    -7.6    10.4   1
   1   8  -7  2174.8    40.7   1
   1   8  -6   296.9    18.4   1
   1   8  -2    13.4     3.4   1
   1   8  -1    25.5     3.7   1
   1   8   0   163.5     4.6   1
   1   8   1   363.7     8.9   1
   1   8   2  1769.1    25.3   1
   1   8   3   445.7    13.0   1
   1   8   4   401.5    10.4   1
   1   8   5    50.5     6.3   1
   1   8   6   262.8     8.2   1
   1   8   7    51.6     9.4   1
   1   8   8     3.5    12.8   1
   1   8   9    41.9    13.1   1
   1   8  10    -8.5    17.0   1
   1   8  11   305.6    24.3   1
   1   8  12   -33.5    19.9   1
   1   8  13  1847.7    40.5   1
   1   8  14   559.1    32.6   1
   1   8  15   222.7    29.5   1
   1   8  16   847.6    37.8   1
   1   8  17   252.1    38.2   1
   1   8  18   -27.2    46.1   1
   1   8  19   -24.7    55.5   1
   1   8  20     4.6    68.9   1
   1   8  21   208.7    87.6   1
   1   8  22   -43.8   120.6   1
   1   8  23  -262.7   149.7   1
   1   8  24   764.9   198.1   1
   1   9 -25  -289.5   159.6   1
   1   9 -24  -254.5   126.0   1
   1   9 -23   -79.2    92.5   1
   1   9 -22   136.1    77.3   1
   1   9 -21   101.7    61.3   1
   1   9 -20  -139.8    68.1   1
   1   9 -19     7.0    41.9   1
   1   9 -18   807.2    39.7   1
   1   9 -17   362.3    33.2   1
   1   9 -16   -32.4    25.9   1
   1   9 -15    42.5    27.3   1
   1   9 -14   229.9    24.8   1
   1   9 -13   719.2    33.8   1
   1   9 -12   223.6    23.9   1
   1   9 -11    91.1    26.3   1
   1   9 -10    -1.0    18.5   1
   1   9  -9   826.1    25.7   1
   1   9  -8  1888.6    50.6   1
   1   9  -7    85.1    23.8   1
   1   9  -2    52.2     5.2   1
   1   9  -1    88.8     4.3   1
   1   9   0    92.9     5.4   1
   1   9   1   144.4     5.6   1
   1   9   2    30.0     4.4   1
   1   9   3  2380.8    47.0   1
   1   9   4   105.1    11.5   1
   1   9   5  3791.3    67.6   1
   1   9   6  1336.3    26.5   1
   1   9   7  1513.7    24.8   1
   1   9   8  1021.5    21.5   1
   1   9   9     2.8    15.4   1
   1   9  10   530.2    23.4   1
   1   9  11   -37.1    24.6   1
   1   9  12  1010.6    30.6   1
   1   9  13   494.5    29.0   1
   1   9  14   850.1    36.2   1
   1   9  15   215.3    30.7   1
   1   9  16    81.6    33.8   1
   1   9  17   874.9    45.1   1
   1   9  18  -115.8    57.5   1
   1   9  19   -29.9    57.5   1
   1   9  20  -103.1    71.5   1
   1   9  21   555.5    96.2   1
   1   9  22   382.0   127.1   1
   1   9  23  -159.0   153.7   1
   1   9  24  -360.7   200.8   1
   1  10 -24    -4.2   133.0   1
   1  10 -23   598.3   101.0   1
   1  10 -22  -318.9    80.8   1
   1  10 -21   203.5    65.6   1
   1  10 -20   268.7    72.5   1
   1  10 -19   -21.7    44.0   1
   1  10 -18   652.6    41.1   1
   1  10 -17     8.2    32.4   1
   1  10 -16   464.1    30.1   1
   1  10 -15   -80.7    29.5   1
   1  10 -14   351.9    27.8   1
   1  10 -13    74.8    30.1   1
   1  10 -12   457.5    28.5   1
   1  10 -11   741.1    26.8   1
   1  10 -10   187.3    23.5   1
   1  10  -9  2068.3    58.0   1
   1  10  -8     9.9    42.0   1
   1  10  -2  1594.5    38.8   1
   1  10  -1   253.5     8.8   1
   1  10   0   238.8     6.7   1
   1  10   2    37.0     5.1   1
   1  10   3   541.8    34.0   1
   1  10   4   145.4    20.9   1
   1  10   5   302.8    31.6   1
   1  10   6   989.8    28.5   1
   1  10   7    24.2    12.7   1
   1  10   8   124.3    13.8   1
   1  10   9   666.5    23.6   1
   1  10  10   933.2    30.9   1
   1  10  11   -22.8    21.3   1
   1  10  12  1750.7    42.2   1
   1  10  13    15.5    27.9   1
   1  10  14   442.8    28.4   1
   1  10  15    71.7    32.1   1
   1  10  16  2197.1    54.2   1
   1  10  17  -137.2    40.8   1
   1  10  18    -6.6    61.2   1
   1  10  19     8.8    60.3   1
   1  10  20   722.9    81.0   1
   1  10  21  -248.7    97.5   1
   1  10  22   -79.7   130.7   1
   1  10  23   539.3   168.1   1
   1  10  24   324.9   210.4   1
   1  11 -24   635.1   143.1   1
   1  11 -23   166.3   105.6   1
   1  11 -22   643.2    88.8   1
   1  11 -21   279.8    70.5   1
   1  11 -20   208.3    57.9   1
   1  11 -19   140.6    47.8   1
   1  11 -18    83.2    39.5   1
   1  11 -17     4.1    34.6   1
   1  11 -16    94.6    30.3   1
   1  11 -14   264.0    28.8   1
   1  11 -13    54.9    26.8   1
   1  11 -12   240.3    40.5   1
   1  11 -11  2667.6    55.3   1
   1  11 -10    93.3    28.9   1
   1  11  -2  2118.7    51.4   1
   1  11  -1  3854.9    54.3   1
   1  11   0    21.3     5.2   1
   1  11   1   200.5     5.2   1
   1  11   2   268.2     8.5   1
   1  11   3   464.4    19.3   1
   1  11   6  1150.4    31.2   1
   1  11   7  3104.0    53.0   1
   1  11   8     0.3    15.6   1
   1  11   9   378.4    21.3   1
   1  11  10  4443.6    79.1   1
   1  11  11  1374.4    32.9   1
   1  11  12   409.2    26.7   1
   1  11  13   178.0    30.1   1
   1  11  14  2203.6    47.0   1
   1  11  15   988.3    39.5   1
   1  11  16  -135.4    37.2   1
   1  11  17  -134.3    43.1   1
   1  11  19    44.2    65.2   1
   1  11  20  1866.7    98.0   1
   1  11  21    96.3   104.5   1
   1  11  22   641.5   143.7   1
   1  11  23    91.5   175.2   1
   1  12 -24   -15.2   151.6   1
   1  12 -23   478.7   116.6   1
   1  12 -22   755.5    97.3   1
   1  12 -21   225.5    75.1   1
   1  12 -20   553.5    63.7   1
   1  12 -19   137.7    51.3   1
   1  12 -18   234.4    41.7   1
   1  12 -17  1124.4    44.0   1
   1  12 -16  1806.4    45.8   1
   1  12 -14   -32.4    29.6   1
   1  12 -11  1299.4    43.2   1
   1  12  -2   912.3    26.6   1
   1  12  -1   914.7    22.2   1
   1  12   0   342.2     8.8   1
   1  12   1    32.1     4.8   1
   1  12   2     5.5     6.9   1
   1  12   3   397.2    14.6   1
   1  12   9   269.1    24.9   1
   1  12  10    49.8    18.8   1
   1  12  14   132.6    31.5   1
   1  12  15   496.1    43.1   1
   1  12  16  -138.0    40.4   1
   1  12  17  1602.4    60.6   1
   1  12  18  -203.2    59.3   1
   1  12  19   465.2    71.7   1
   1  12  20    41.9    87.6   1
   1  12  21  -259.1   110.5   1
   1  12  23   302.6   182.7   1
   1  13 -24   248.7   161.6   1
   1  13 -23  -260.1   121.5   1
   1  13 -22  -173.6    98.4   1
   1  13 -21   134.2    79.2   1
   1  13 -20    27.9    67.3   1
   1  13 -19  1944.1    68.1   1
   1  13 -18   -11.4    44.3   1
   1  13 -15   -27.1    28.5   1
   1  13 -13   -83.7    25.7   1
   1  13 -12  1319.5    40.8   1
   1  13  -2    27.4    11.0   1
   1  13   0  1021.0    16.8   1
   1  13   1   353.1     7.3   1
   1  13   2   183.5    10.1   1
   1  13  10  1951.8    40.2   1
   1  13  11    -4.3    23.6   1
   1  13  13   -41.1    26.5   1
   1  13  14  1353.8    61.3   1
   1  13  15   518.8    39.7   1
   1  13  16    95.0    42.5   1
   1  13  17    12.5    51.5   1
   1  13  18   499.0    65.2   1
   1  13  19   618.0    79.6   1
   1  13  20   -96.6    93.9   1
   1  13  21   -84.5   121.2   1
   1  13  22   -21.3   155.4   1
   1  13  23   247.9   193.0   1
   1  14 -24   -56.2   171.7   1
   1  14 -23  1037.1   138.1   1
   1  14 -22   411.2   105.2   1
   1  14 -21   911.3    90.8   1
   1  14 -20  1003.8    87.8   1
   1  14 -19   146.6    57.1   1
   1  14 -18    -6.6    46.9   1
   1  14 -16    34.5    39.2   1
   1  14 -14   248.1    33.7   1
   1  14 -12    -2.2    23.8   1
   1  14 -10    10.0    22.3   1
   1  14  -2    21.6    14.2   1
   1  14   0   313.1    14.6   1
   1  14   1   408.2     8.7   1
   1  14   2   166.6     9.3   1
   1  14   9    -8.7    18.3   1
   1  14  12   139.4    27.1   1
   1  14  13    39.4    28.3   1
   1  14  14    84.6    43.7   1
   1  14  15   431.1    54.9   1
   1  14  16   -68.7    52.9   1
   1  14  17  -116.4    56.1   1
   1  14  18  -191.9    67.1   1
   1  14  19  1106.1    88.8   1
   1  14  20   296.0   100.1   1
   1  14  21  1455.6   144.7   1
   1  14  22   458.3   168.8   1
   1  14  23   106.0   213.0   1
   1  15 -23     8.0   142.3   1
   1  15 -21    50.6    89.8   1
   1  15 -20   196.6    74.8   1
   1  15 -19   332.5    63.0   1
   1  15 -14  1047.1    38.0   1
   1  15 -13   244.4    29.6   1
   1  15 -12   -28.2    24.9   1
   1  15  -2   293.6    21.4   1
   1  15   1    92.9    15.7   1
   1  15   2   667.0    16.6   1
   1  15   3   625.5    19.7   1
   1  15   4   253.5    13.2   1
   1  15   5   194.1    13.2   1
   1  15   6   272.0    15.3   1
   1  15   7    11.5    15.2   1
   1  15   8    25.4    17.6   1
   1  15   9    87.0    20.6   1
   1  15  10     3.1    23.2   1
   1  15  12  2135.7    50.6   1
   1  15  14   268.2    37.0   1
   1  15  15  1349.8    50.2   1
   1  15  16   -36.1    58.9   1
   1  15  17   747.7    63.5   1
   1  15  18  -127.0    70.6   1
   1  15  20  1291.3   115.2   1
   1  15  21   982.0   148.3   1
   1  15  22   -12.6   178.9   1
   1  16 -23  -153.1   160.2   1
   1  16 -22    46.9   118.8   1
   1  16 -21     6.4   100.3   1
   1  16 -20   220.5    81.7   1
   1  16 -18  1033.0    89.1   1
   1  16 -14  1081.5    40.5   1
   1  16 -13   -58.8    28.3   1
   1  16 -12    21.3    26.2   1
   1  16 -11   412.8    25.7   1
   1  16  -2    64.8    26.4   1
   1  16   1  1594.2    47.6   1
   1  16   2  2386.5    53.5   1
   1  16   4   421.2    16.0   1
   1  16   5  1088.3    27.4   1
   1  16   6   528.8    20.6   1
   1  16   7   -11.8    16.7   1
   1  16   8   740.8    24.6   1
   1  16   9    36.6    21.5   1
   1  16  10   513.2    25.5   1
   1  16  11   157.0    23.4   1
   1  16  15    64.9    67.3   1
   1  16  18    40.9    75.1   1
   1  16  19   650.5    96.7   1
   1  16  20  1893.4   132.9   1
   1  16  21   545.4   158.5   1
   1  16  22   218.7   193.1   1
   1  17 -23  1722.0   182.6   1
   1  17 -22   398.7   132.6   1
   1  17 -21   147.1   133.2   1
   1  17 -16   -32.7    41.5   1
   1  17 -14  1150.3    43.2   1
   1  17 -13   -15.3    29.9   1
   1  17 -12   147.3    27.0   1
   1  17 -11   279.0    24.2   1
   1  17 -10    21.5    21.8   1
   1  17  -9  2861.3    45.9   1
   1  17  -2     4.6    53.1   1
   1  17   0  3395.5   107.8   1
   1  17   1  1088.0    44.9   1
   1  17   2    15.7    31.0   1
   1  17   4  2349.5    41.2   1
   1  17   5    90.9    16.0   1
   1  17   6    68.0    16.8   1
   1  17   7  3843.2    56.4   1
   1  17   8   -13.5    18.5   1
   1  17   9   170.7    21.9   1
   1  17  10   261.8    22.6   1
   1  17  11    92.2    25.1   1
   1  17  12    55.9    28.6   1
   1  17  13  1672.0    58.7   1
   1  17  14   419.4    40.6   1
   1  17  19   -60.8   103.4   1
   1  17  20  3557.2   169.8   1
   1  17  21   -50.7   167.6   1
   1  17  22  1186.1   217.6   1
   1  18 -22   658.7   147.8   1
   1  18 -17   -27.7    74.6   1
   1  18 -16  1525.9    60.5   1
   1  18 -15   682.0    40.6   1
   1  18 -14   172.1    36.8   1
   1  18 -13    30.2    31.6   1
   1  18 -12   305.7    28.9   1
   1  18 -11   128.2    25.0   1
   1  18 -10   161.2    21.5   1
   1  18  -9    82.2    20.0   1
   1  18  -2  2235.0   123.1   1
   1  18   1   -15.9    35.3   1
   1  18   2    29.5    44.9   1
   1  18   5    75.9    17.8   1
   1  18   6  2071.6    41.4   1
   1  18   7   719.3    25.1   1
   1  18   8   995.6    25.8   1
   1  18   9   122.4    20.6   1
   1  18  10     1.8    23.3   1
   1  18  11    14.7    26.6   1
   1  18  12   179.9    30.6   1
   1  18  13  1099.4    43.5   1
   1  18  15   -20.4    56.0   1
   1  18  20   230.9   147.8   1
   1  19 -17  2310.8    73.3   1
   1  19 -16   252.8    47.2   1
   1  19 -15   167.8    39.7   1
   1  19 -14   111.1    34.5   1
   1  19 -12   161.7    26.8   1
   1  19 -11    93.8    23.0   1
   1  19 -10    98.5    21.6   1
   1  19  -9   329.5    19.9   1
   1  19  -8    66.6    18.5   1
   1  19  -2   419.3    93.2   1
   1  19   0   676.4    53.8   1
   1  19   2  1714.9    94.0   1
   1  19   5   -12.6    22.6   1
   1  19   6    94.3    23.2   1
   1  19   7    67.6    21.8   1
   1  19   8   807.9    28.7   1
   1  19   9    72.1    20.2   1
   1  19  10   197.2    23.8   1
   1  19  11   136.9    28.0   1
   1  19  12   401.9    34.2   1
   1  19  13   705.9    42.6   1
   1  19  14   159.9    47.9   1
   1  19  16   125.7    74.4   1
   1  19  21   355.9   198.8   1
   1  20 -17   -39.9    61.2   1
   1  20 -16   -79.0    51.5   1
   1  20 -15   173.0    43.5   1
   1  20 -14   -46.8    35.9   1
   1  20 -13  1561.2    43.0   1
   1  20 -12    90.9    28.2   1
   1  20 -11   108.7    24.0   1
   1  20 -10   909.3    28.2   1
   1  20  -9  1084.2    32.0   1
   1  20  -8   170.5    23.1   1
   1  20   1  1423.4   100.5   1
   1  20   7   243.1    30.1   1
   1  20   8   110.6    21.1   1
   1  20   9     0.3    21.2   1
   1  20  10   175.5    24.6   1
   1  20  11  1863.5    47.7   1
   1  20  12   154.5    35.2   1
   1  20  13   228.8    42.5   1
   1  20  14   179.1    49.2   1
   1  20  15    30.6    60.6   1
   1  20  16  1378.1    81.4   1
   1  21 -19   485.8   127.5   1
   1  21 -18   -83.9    81.6   1
   1  21 -17   223.6    66.8   1
   1  21 -16   355.1    56.2   1
   1  21 -15   682.7    51.6   1
   1  21 -14   558.1    42.6   1
   1  21 -13   141.8    35.5   1
   1  21 -12   269.6    30.5   1
   1  21 -11   -14.4    25.9   1
   1  21 -10   181.8    24.4   1
   1  21  -9   634.2    29.5   1
   1  21   8    51.1    32.0   1
   1  21   9   291.1    31.1   1
   1  21  10   356.4    28.1   1
   1  21  11     2.2    29.4   1
   1  21  12  1186.5    42.3   1
   1  21  13  -110.3    45.7   1
   1  21  14   189.0    56.7   1
   1  21  16  -109.3    75.2   1
   1  22 -19   -18.8   105.8   1
   1  22 -18   -42.4    87.8   1
   1  22 -17  -187.8    72.4   1
   1  22 -16   436.9    62.0   1
   1  22 -15   501.4    53.5   1
   1  22 -14    87.2    45.2   1
   1  22 -13   108.5    38.1   1
   1  22 -12   597.1    35.9   1
   1  22 -11   375.8    30.6   1
   1  22 -10   459.5    35.0   1
   1  22  -9   207.7    33.9   1
   1  22   8    10.1    36.2   1
   1  22   9   -91.3    29.4   1
   1  22  10   210.8    29.8   1
   1  22  11    27.2    41.4   1
   1  22  12  1745.8    53.1   1
   1  22  13   229.1    51.5   1
   1  22  14   107.0    58.7   1
   1  22  15    27.2    72.6   1
   1  22  16  3150.5   118.6   1
   1  22  17   137.1   106.7   1
   1  23 -20  1004.1   156.4   1
   1  23 -19  1261.2   124.3   1
   1  23 -18   -14.2    93.7   1
   1  23 -17   -43.6    79.4   1
   1  23 -16    56.1    68.2   1
   1  23 -15  1282.8    66.0   1
   1  23 -14  2397.6    69.0   1
   1  23 -13   317.2    42.6   1
   1  23 -12   446.7    39.3   1
   1  23 -11    39.9    32.6   1
   1  23 -10   978.3    44.8   1
   1  23  -9   -11.3    37.6   1
   1  23   9   330.9    52.0   1
   1  23  10  1176.7    49.2   1
   1  23  11    27.3    37.3   1
   1  23  12   329.7    43.1   1
   1  23  13  -139.6    49.3   1
   1  23  14   195.9    66.7   1
   1  23  15   438.3    83.0   1
   1  23  16  1088.5   103.9   1
   1  23  18    38.6   148.5   1
   1  23  19   312.9   181.8   1
   1  24 -19   -37.2   134.9   1
   1  24 -18  -180.3   107.1   1
   1  24 -17  -246.1    86.6   1
   1  24 -16   453.5    75.8   1
   1  24 -15   304.6    64.8   1
   1  24 -14   267.9    54.5   1
   1  24 -12   149.2    40.9   1
   1  24 -11    10.9    45.1   1
   1  24   9    12.3    58.3   1
   1  24  10   -40.2    42.8   1
   1  24  11   204.6    43.3   1
   1  24  12  1133.4    55.1   1
   1  24  14  -103.9    62.8   1
   1  24  15  1456.4   100.4   1
   1  24  16  2261.3   134.4   1
   1  24  17   334.8   139.9   1
   1  24  18   849.4   169.9   1
   1  25 -19  1039.5   157.5   1
   1  25 -18  -197.4   121.5   1
   1  25 -17  -117.5   100.2   1
   1  25 -16   -68.1    81.2   1
   1  25 -15   154.2    81.6   1
   1  25 -14    66.7    60.5   1
   1  25 -12   115.9    47.5   1
   1  25 -11   144.8    57.8   1
   1  25  11   136.4    50.0   1
   1  25  12   299.4    55.5   1
   1  25  13   -51.2    61.5   1
   1  25  14   786.2    74.9   1
   1  25  15   -84.5    86.0   1
   1  25  16   321.1   129.4   1
   1  25  17   616.6   156.1   1
   1  26 -18   138.0   142.1   1
   1  26 -17   -64.5   117.0   1
   1  26 -16    93.3    96.1   1
   1  26 -15   915.8    84.0   1
   1  26 -13    30.6    60.9   1
   1  26 -12   -11.6    53.9   1
   1  26 -11   -95.2    66.9   1
   1  26  11   722.6    72.5   1
   1  26  12   174.1    63.4   1
   1  26  13  1035.8    84.1   1
   1  26  14   536.4    86.5   1
   1  26  15  1248.0   106.0   1
   1  26  16    -0.5   115.6   1
   1  27 -17   604.9   136.1   1
   1  27 -16  1980.5   126.5   1
   1  27 -15    88.1    92.1   1
   1  27 -14   841.0    85.7   1
   1  27 -13   128.7    70.3   1
   1  27 -12   232.5    92.1   1
   1  27  12   121.0    79.6   1
   1  27  13    46.0    84.7   1
   1  27  14  3230.4   127.9   1
   1  27  15  -315.6   114.7   1
   1  27  16   139.8   136.7   1
   1  27  17  1179.6   166.8   1
   1  28 -17   391.4   153.8   1
   1  28 -16   216.0   128.7   1
   1  28 -15  1552.4   122.6   1
   1  28 -14   609.8   100.3   1
   1  28 -13   437.7    85.9   1
   1  28 -12   753.9   112.9   1
   1  28  15   827.4   134.2   1
   1  28  16  -114.2   153.7   1
   1  29 -16    -5.0   145.1   1
   1  29 -14   534.1   113.4   1
   1  29  13  1284.0   124.1   1
   1  29  14    11.4   130.3   1
   1  30 -15   266.8   146.2   1
   1  30 -14   693.1   134.9   1
   1  30  14   948.3   161.8   1
   2   0 -19   -37.5    51.3   1
   2   0 -17   -20.3    30.3   1
   2   0 -15   -39.6    19.5   1
   2   0   9    12.2    13.9   1
   2   0  11    -5.8    18.5   1
   2   0  13    -9.3    19.3   1
   2   1 -25  -628.4   302.3   1
   2   1 -24   129.0   203.8   1
   2   1 -23  1023.9   145.1   1
   2   1 -22   552.8    95.4   1
   2   1 -21     0.9    64.7   1
   2   1 -20   542.4    41.3   1
   2   1 -19   -36.0    29.8   1
   2   1 -18   226.7    24.6   1
   2   1 -17     6.4    19.7   1
   2   1 -16  3527.9    62.0   1
   2   1 -15   384.7    16.1   1
   2   1 -14   -13.8    13.3   1
   2   1 -13   119.8    12.2   1
   2   1 -12  1954.4    32.9   1
   2   1  -8    60.0     8.6   1
   2   1  -5    58.9     3.5   1
   2   1   6    68.2     7.2   1
   2   1   7   349.4    12.3   1
   2   1   8    17.2    10.6   1
   2   1   9     3.1    10.0   1
   2   1  10   181.5    13.8   1
   2   1  11   152.6    12.4   1
   2   1  12   142.7    13.5   1
   2   1  13    83.7    13.8   1
   2   1  14  1996.9    28.5   1
   2   1  15   227.6    18.3   1
   2   1  16   451.7    22.7   1
   2   1  17    92.2    25.4   1
   2   1  18   125.2    32.8   1
   2   1  19   447.7    42.6   1
   2   1  20    20.1    51.3   1
   2   1  21   448.4    70.1   1
   2   1  22   377.3    93.8   1
   2   1  23   -66.8   155.1   1
   2   1  24  -228.8   223.9   1
   2   2 -23  -156.9   105.6   1
   2   2 -21    56.6    49.3   1
   2   2 -19   861.6    34.2   1
   2   2 -17     6.7    19.7   1
   2   2 -15     0.3    15.6   1
   2   2 -13    40.7    13.0   1
   2   2   7   999.7    21.5   1
   2   2   9   225.9    13.2   1
   2   2  11  1296.9    26.7   1
   2   2  13   718.5    21.3   1
   2   2  15  1164.5    33.1   1
   2   2  17    30.1    25.4   1
   2   2  19    99.4    40.9   1
   2   3 -26  -229.1   176.4   1
   2   3 -25   494.5   130.9   1
   2   3 -24    -0.8   100.9   1
   2   3 -23  1255.9    84.3   1
   2   3 -22   381.0    59.2   1
   2   3 -21   217.0    46.3   1
   2   3 -20   277.7    37.5   1
   2   3 -19  1764.7    45.2   1
   2   3 -18     5.7    24.5   1
   2   3 -17  2701.9    47.7   1
   2   3 -16    -8.8    17.8   1
   2   3 -15    64.8    16.6   1
   2   3 -14   284.6    17.3   1
   2   3 -13   211.2    13.6   1
   2   3 -12    44.4    12.7   1
   2   3 -11  1121.0    22.6   1
   2   3 -10     3.3    11.6   1
   2   3  -9  1356.6    30.5   1
   2   3   6   421.0    11.5   1
   2   3   7  1290.2    31.5   1
   2   3   8   553.4    15.8   1
   2   3   9   216.5    12.1   1
   2   3  10    18.0    11.0   1
   2   3  11    35.4    12.4   1
   2   3  12    98.1    15.5   1
   2   3  13  2499.3    37.6   1
   2   3  14   656.3    23.3   1
   2   3  15   189.3    20.5   1
   2   3  16    23.6    24.1   1
   2   3  17    10.1    28.0   1
   2   3  18   688.3    38.8   1
   2   3  19   371.7    42.2   1
   2   3  20   244.5    54.6   1
   2   3  21   -28.6    66.9   1
   2   3  22   607.2    94.0   1
   2   3  23    16.6   117.9   1
   2   3  24   284.6   159.9   1
   2   4 -23    36.9    75.2   1
   2   4 -21   -77.2    52.6   1
   2   4 -19   300.0    32.0   1
   2   4 -17    71.6    22.1   1
   2   4 -15   369.0    21.7   1
   2   4 -13    57.0    15.5   1
   2   4 -11   215.3    13.1   1
   2   4  -9  1414.3    34.3   1
   2   4  -7  3298.8    70.2   1
   2   4  -5    41.2     5.8   1
   2   4  -3   242.1     8.1   1
   2   4   7    83.4     9.5   1
   2   4   9  2778.5    42.0   1
   2   4  11   113.6    13.8   1
   2   4  13  1634.6    37.5   1
   2   4  15    48.9    46.3   1
   2   4  17    71.8    30.7   1
   2   4  23  1303.9   132.5   1
   2   5 -25   218.7   132.0   1
   2   5 -24  -151.1   100.6   1
   2   5 -23   711.5    78.9   1
   2   5 -22  1246.8    70.3   1
   2   5 -21   796.0    53.2   1
   2   5 -20   -15.8    39.4   1
   2   5 -19   -10.0    31.7   1
   2   5 -18     5.4    26.0   1
   2   5 -17   383.5    27.5   1
   2   5 -16  1684.6    36.8   1
   2   5 -15   -13.5    22.8   1
   2   5 -14   259.0    19.9   1
   2   5 -13    -8.0    17.1   1
   2   5 -12   304.6    17.9   1
   2   5 -11    33.0    12.6   1
   2   5 -10    98.8    11.7   1
   2   5  -9    -6.6    12.4   1
   2   5  -8   182.6    12.4   1
   2   5  -7    75.9     9.5   1
   2   5  -6  3280.3    54.9   1
   2   5  -5  1461.7    25.7   1
   2   5  -4  2328.7    30.7   1
   2   5  -2   470.3    16.5   1
   2   5   6   679.2    14.2   1
   2   5   7   485.0    17.0   1
   2   5   8   704.3    16.1   1
   2   5   9     1.1    12.2   1
   2   5  10  1181.8    26.7   1
   2   5  11    41.5    14.2   1
   2   5  12   598.7    22.0   1
   2   5  13  2732.1    43.1   1
   2   5  14  2650.7    53.3   1
   2   5  15   196.9    23.0   1
   2   5  16   113.6    26.8   1
   2   5  17   152.4    32.5   1
   2   5  18   -27.1    38.5   1
   2   5  19   256.3    48.4   1
   2   5  20   965.1    64.0   1
   2   5  21   189.5    71.4   1
   2   5  22    46.1    93.0   1
   2   5  23   -76.4   120.8   1
   2   5  24   511.6   157.3   1
   2   6 -23   211.8    81.9   1
   2   6 -21   -49.8    48.8   1
   2   6 -19   229.9    33.7   1
   2   6 -17   423.6    28.9   1
   2   6 -15  1832.7    51.2   1
   2   6 -13    68.6    20.0   1
   2   6 -11  1797.2    33.4   1
   2   6  -7   451.1    11.9   1
   2   6  -5   149.3     5.6   1
   2   6  -3  1455.9    22.5   1
   2   6   5   105.4     7.2   1
   2   6   7     5.4     8.0   1
   2   6   9    98.3    15.2   1
   2   6  11  3196.3    63.3   1
   2   6  13   883.8    28.2   1
   2   6  15  1069.0    46.2   1
   2   6  17    61.5    33.9   1
   2   6  19  2694.8    72.4   1
   2   7 -25    24.6   135.1   1
   2   7 -24    -2.1   104.9   1
   2   7 -23  -117.1    77.8   1
   2   7 -22  -163.9    62.9   1
   2   7 -21   545.1    53.1   1
   2   7 -20   782.5    46.0   1
   2   7 -19  1509.5    55.5   1
   2   7 -18   312.3    33.9   1
   2   7 -17   261.6    29.2   1
   2   7 -16    95.2    25.4   1
   2   7 -15    50.2    25.7   1
   2   7 -14   104.9    23.6   1
   2   7 -13   331.5    21.2   1
   2   7 -10    19.8    12.6   1
   2   7  -9   165.6    12.0   1
   2   7  -8  1092.2    21.5   1
   2   7  -7   780.3    12.7   1
   2   7  -6   885.6    12.2   1
   2   7  -5  8200.9   108.1   1
   2   7  -4    71.0     5.2   1
   2   7  -3  1265.8    20.8   1
   2   7   0   235.3     7.8   1
   2   7   2   513.1    12.4   1
   2   7   3    12.6     4.6   1
   2   7   4   710.4    13.2   1
   2   7   5   200.2     8.5   1
   2   7   6   617.0    15.5   1
   2   7   7   300.5    11.6   1
   2   7   8    -9.1    11.0   1
   2   7   9   151.7    15.9   1
   2   7  10  1734.8    34.9   1
   2   7  11  2132.0    46.0   1
   2   7  12  3051.5    61.9   1
   2   7  13   464.6    27.3   1
   2   7  14   -57.5    26.2   1
   2   7  15    10.6    25.3   1
   2   7  16   -53.4    29.8   1
   2   7  17   794.2    44.9   1
   2   7  18   683.6    52.2   1
   2   7  19   695.6    67.5   1
   2   7  20   421.1    79.8   1
   2   7  21  -137.1    93.0   1
   2   7  22  2515.8   156.6   1
   2   8 -25   617.4   142.3   1
   2   8 -23   237.1    83.0   1
   2   8 -21   -86.7    53.1   1
   2   8 -19   993.0    49.3   1
   2   8 -17  2084.4    50.1   1
   2   8 -15    37.3    28.1   1
   2   8 -13     2.7    21.4   1
   2   8 -11   569.3    25.9   1
   2   8  -9    11.3    11.0   1
   2   8  -7  3029.7    50.1   1
   2   8  -5   732.1    18.8   1
   2   8  -3    26.6     3.8   1
   2   8  -1    30.8     4.0   1
   2   8   1   354.3     9.9   1
   2   8   5  1202.5    17.5   1
   2   8   7   738.7    16.7   1
   2   8   9  1212.5    35.1   1
   2   8  11    28.5    22.1   1
   2   8  13   527.1    31.5   1
   2   8  15    19.1    34.5   1
   2   8  17   623.5    45.0   1
   2   8  19  -117.6    64.5   1
   2   8  21   531.1   102.6   1
   2   9 -25   785.8   149.0   1
   2   9 -23  -215.1    84.3   1
   2   9 -22  1414.0    79.4   1
   2   9 -21   114.8    55.2   1
   2   9 -20  -114.6    55.4   1
   2   9 -19    90.2    45.5   1
   2   9 -18   976.9    43.7   1
   2   9 -17   191.5    35.9   1
   2   9 -16   221.6    28.6   1
   2   9 -15    56.8    32.4   1
   2   9 -14  3107.5    61.4   1
   2   9 -13  1650.1    44.6   1
   2   9 -11   765.5    31.2   1
   2   9 -10   271.3    19.5   1
   2   9  -9  2151.2    40.5   1
   2   9  -8  1270.7    28.8   1
   2   9  -7  1099.1    32.7   1
   2   9  -4    90.2    10.5   1
   2   9  -3   192.1     6.6   1
   2   9  -2   254.3     6.4   1
   2   9  -1   696.5    12.1   1
   2   9   0  1481.8    22.4   1
   2   9   1   126.2     5.0   1
   2   9   2  4543.6    71.6   1
   2   9   3  3061.5    40.2   1
   2   9   4  2891.7    33.0   1
   2   9   5   490.1    10.0   1
   2   9   6    -2.8     8.2   1
   2   9   7   115.7    13.2   1
   2   9   8   337.4    19.2   1
   2   9   9   120.9    19.6   1
   2   9  10   215.4    21.2   1
   2   9  11    37.1    24.0   1
   2   9  12  2662.2    50.3   1
   2   9  13   544.2    28.7   1
   2   9  14   649.1    32.9   1
   2   9  15   349.6    33.4   1
   2   9  16    82.2    37.4   1
   2   9  17  1183.6    53.0   1
   2   9  18   299.9    54.1   1
   2   9  19  -125.6    66.4   1
   2   9  20  1146.6    91.1   1
   2   9  21   965.1   112.3   1
   2   9  22   380.2   141.7   1
   2   9  23    26.0   176.7   1
   2  10 -25   165.1   151.1   1
   2  10 -23   -59.7    90.8   1
   2  10 -21    84.5    70.8   1
   2  10 -19   115.8    47.7   1
   2  10 -17   788.1    39.3   1
   2  10 -15  1560.9    44.1   1
   2  10 -13   397.8    30.1   1
   2  10 -11  1441.4    50.0   1
   2  10  -9    80.1    22.1   1
   2  10  -3   795.4    16.5   1
   2  10  -1  2064.3    31.1   1
   2  10   1  2539.4    35.5   1
   2  10   3  1644.2    25.3   1
   2  10   5  1589.8    21.9   1
   2  10   7    41.6    12.4   1
   2  10   9   132.9    16.6   1
   2  10  11  1364.3    41.3   1
   2  10  13    -4.7    27.4   1
   2  10  15    76.4    34.2   1
   2  10  17   487.2    48.9   1
   2  10  19    -5.4    69.5   1
   2  10  21    52.4   110.9   1
   2  11 -25     6.4   160.0   1
   2  11 -23   439.6    97.3   1
   2  11 -22   460.1    99.8   1
   2  11 -21   821.5    81.4   1
   2  11 -20   -30.8    61.8   1
   2  11 -19   379.0    51.4   1
   2  11 -18   743.6    47.5   1
   2  11 -17   256.8    37.1   1
   2  11 -16    92.8    31.9   1
   2  11 -15    -4.9    27.8   1
   2  11 -14    23.9    30.4   1
   2  11 -13   492.7    30.6   1
   2  11 -12  1112.1    35.7   1
   2  11 -11   828.9    46.8   1
   2  11 -10   -64.4    31.9   1
   2  11  -3    17.1     9.1   1
   2  11  -2  2256.7    30.3   1
   2  11  -1    83.1     5.5   1
   2  11   0   193.4     8.0   1
   2  11   1  1099.0    16.4   1
   2  11   2   319.4     9.9   1
   2  11   3    -0.5     8.0   1
   2  11   4   188.7    11.5   1
   2  11   5  1536.3    33.4   1
   2  11   6    87.1    14.0   1
   2  11   7    16.1    16.2   1
   2  11   8  3697.6    58.0   1
   2  11   9  2320.9    51.3   1
   2  11  10  1830.7    39.5   1
   2  11  11   646.6    31.7   1
   2  11  12   209.1    29.0   1
   2  11  13   565.3    37.7   1
   2  11  14  2387.7    51.9   1
   2  11  15   -32.3    35.3   1
   2  11  16  1041.2    48.9   1
   2  11  17   -35.3    49.7   1
   2  11  18   -40.6    58.8   1
   2  11  19   215.7    74.1   1
   2  11  20  1658.0   107.9   1
   2  11  21  1812.0   135.0   1
   2  11  22   367.7   158.4   1
   2  11  23   193.4   194.8   1
   2  12 -23  -493.6   100.1   1
   2  12 -21  -118.3    80.1   1
   2  12 -19   315.1    54.3   1
   2  12 -17  1379.0    47.6   1
   2  12 -15   626.8    33.8   1
   2  12 -13   -13.3    29.5   1
   2  12  -3   404.2    18.6   1
   2  12  -1  2705.5    35.3   1
   2  12   1    47.7     6.8   1
   2  12   3   184.3     9.8   1
   2  12   5   756.2    31.5   1
   2  12   7   206.5    20.7   1
   2  12   9   -10.2    19.5   1
   2  12  11   129.1    24.5   1
   2  12  13   108.7    31.6   1
   2  12  15   -71.4    38.0   1
   2  12  17   458.4    54.8   1
   2  12  19  -206.1    79.3   1
   2  12  21  -138.2   130.1   1
   2  12  23   -64.1   211.9   1
   2  13 -24  -206.3   140.3   1
   2  13 -22   697.8   113.6   1
   2  13 -20    17.4    73.7   1
   2  13 -19   183.9    57.5   1
   2  13 -18   201.2    49.0   1
   2  13 -17   131.6    41.1   1
   2  13 -16   -61.0    35.4   1
   2  13 -15   212.1    33.0   1
   2  13 -14   210.5    28.3   1
   2  13  -3    34.6    18.7   1
   2  13  -2    -0.6     8.3   1
   2  13  -1   188.6     8.5   1
   2  13   0   429.5    12.0   1
   2  13   1   463.8    12.2   1
   2  13   2  1285.9    27.3   1
   2  13   3    28.1     9.7   1
   2  13   4  1798.4    37.1   1
   2  13   5  1046.6    24.8   1
   2  13   6  1300.3    28.9   1
   2  13   7   810.2    26.0   1
   2  13   8  1719.8    41.7   1
   2  13   9   376.8    24.9   1
   2  13  10   314.1    24.1   1
   2  13  12  1037.3    34.4   1
   2  13  13  1619.8    53.2   1
   2  13  14   113.3    35.1   1
   2  13  15   235.5    40.4   1
   2  13  16  1168.9    56.4   1
   2  13  17  -202.3    58.1   1
   2  13  18  2916.0    97.6   1
   2  13  19  1093.8    92.5   1
   2  13  20  -152.4   105.9   1
   2  13  21   -42.9   135.7   1
   2  14 -23    79.9   149.7   1
   2  14 -21   688.1    98.8   1
   2  14 -19   -31.0    62.1   1
   2  14 -17  1497.2    55.5   1
   2  14 -15   -43.3    32.0   1
   2  14  -3   796.8    27.2   1
   2  14  -1  1938.1    46.4   1
   2  14   1     8.9     9.8   1
   2  14   3    59.5    11.2   1
   2  14   5   241.6    15.2   1
   2  14   7    86.0    17.5   1
   2  14   9  1146.9    31.1   1
   2  14  11   738.2    29.3   1
   2  14  13   223.4    32.1   1
   2  14  15    14.8    42.3   1
   2  14  17   288.9    62.5   1
   2  14  19  -452.6    90.0   1
   2  14  21   250.3   148.9   1
   2  15 -22  -377.7   125.1   1
   2  15 -20    30.1    83.4   1
   2  15 -17  2395.4    68.9   1
   2  15 -16  1250.6    47.9   1
   2  15 -15    38.2    34.7   1
   2  15 -14    15.1    31.2   1
   2  15 -13   -41.3    26.1   1
   2  15  -3    13.3    20.8   1
   2  15  -2  1040.4    36.3   1
   2  15  -1    12.3    18.4   1
   2  15   0   992.0    38.4   1
   2  15   1   357.1    16.1   1
   2  15   2   116.4    12.5   1
   2  15   3   269.9    15.8   1
   2  15   4  1224.7    30.1   1
   2  15   5    -1.8    14.8   1
   2  15   6  2737.1    48.2   1
   2  15   8  1766.9    36.9   1
   2  15   9   491.9    25.9   1
   2  15  10   726.8    27.4   1
   2  15  11  1595.2    49.0   1
   2  15  12  1980.8    44.6   1
   2  15  14   349.4    39.4   1
   2  15  15   621.3    48.9   1
   2  15  16  -109.2    54.3   1
   2  15  18  -258.4    80.0   1
   2  15  19  1098.9   105.3   1
   2  15  20  1617.4   137.0   1
   2  15  22   347.0   203.1   1
   2  16 -21   362.5   116.2   1
   2  16 -19   359.9    77.7   1
   2  16 -17   -53.4    57.7   1
   2  16 -15   193.1    36.9   1
   2  16 -13    61.5    28.9   1
   2  16 -11     5.7    24.2   1
   2  16  -3  2688.3    63.3   1
   2  16  -1   850.5    34.8   1
   2  16   1     0.9    22.5   1
   2  16   3   635.4    24.2   1
   2  16   5  1042.1    26.6   1
   2  16   7   329.7    20.9   1
   2  16   9   -30.3    20.3   1
   2  16  11   -33.1    24.9   1
   2  16  13    -9.4    43.7   1
   2  16  19   786.4   110.8   1
   2  16  21  -504.8   174.3   1
   2  17 -22  -199.4   153.8   1
   2  17 -21    44.7   120.6   1
   2  17 -20   136.3    99.6   1
   2  17 -19   235.6    80.4   1
   2  17 -18   187.9    66.6   1
   2  17 -16    23.3    45.7   1
   2  17 -15    97.9    38.3   1
   2  17 -14  1220.7    45.2   1
   2  17 -13    71.2    29.3   1
   2  17 -12   801.0    32.5   1
   2  17 -11   -16.1    22.0   1
   2  17 -10    59.8    23.9   1
   2  17  -9    53.7    21.8   1
   2  17  -7    32.1    19.3   1
   2  17  -6    94.8    18.9   1
   2  17   0   978.3    35.5   1
   2  17   2  2029.8    65.2   1
   2  17   3    34.2    21.4   1
   2  17   5    19.9    17.4   1
   2  17   6    67.7    15.2   1
   2  17   7   536.9    20.6   1
   2  17   8  4285.4    65.6   1
   2  17   9    -4.6    20.7   1
   2  17  10   332.2    24.6   1
   2  17  11     6.5    27.3   1
   2  17  12    20.8    30.8   1
   2  17  13    82.2    44.0   1
   2  17  14  2979.6    75.9   1
   2  17  16  3197.6    93.4   1
   2  17  17    48.4    75.7   1
   2  17  18  1813.5   106.6   1
   2  17  20  1466.7   163.6   1
   2  17  21  -299.5   191.3   1
   2  18 -21  -336.2   133.6   1
   2  18 -19   112.5    86.9   1
   2  18 -17   -12.8    57.8   1
   2  18 -15   116.7    45.0   1
   2  18 -13   366.8    31.8   1
   2  18 -11    31.2    24.6   1
   2  18  -9   392.0    21.2   1
   2  18  -7   -12.3    19.0   1
   2  18   5     1.6    19.6   1
   2  18   7    60.6    17.2   1
   2  18   9   204.0    22.7   1
   2  18  11   338.5    30.5   1
   2  18  13    23.4    39.2   1
   2  18  21  -335.9   206.0   1
   2  19 -22  -468.4   188.3   1
   2  19 -20    87.1   115.9   1
   2  19 -18   -66.5    76.8   1
   2  19 -16   -18.8    52.1   1
   2  19 -15   756.2    50.0   1
   2  19 -14   -31.9    36.3   1
   2  19 -13   982.1    39.3   1
   2  19 -12   221.4    28.7   1
   2  19 -11   713.2    30.4   1
   2  19 -10    23.5    20.4   1
   2  19  -9    14.0    19.4   1
   2  19  -8    91.4    23.2   1
   2  19  -7    85.4    21.3   1
   2  19   2   225.0    44.7   1
   2  19   5  2379.3    58.0   1
   2  19   6  3117.4    65.2   1
   2  19   7   123.8    21.0   1
   2  19   8   858.4    27.9   1
   2  19   9  1287.7    35.0   1
   2  19  10   415.9    28.8   1
   2  19  11     1.8    30.3   1
   2  19  12    72.7    35.3   1
   2  19  13   145.0    43.5   1
   2  19  14    -8.4    51.3   1
   2  19  18   -66.7   112.9   1
   2  19  20  -352.3   178.9   1
   2  20 -21    11.1   164.9   1
   2  20 -19   -27.6   105.0   1
   2  20 -15   464.5    51.9   1
   2  20 -13    -7.4    35.0   1
   2  20 -11   -28.7    26.5   1
   2  20  -9   837.9    28.9   1
   2  20   5  3281.8    88.8   1
   2  20   7     5.3    22.2   1
   2  20   9  1655.1    42.1   1
   2  20  11    59.8    33.9   1
   2  20  13  2678.9    72.6   1
   2  20  19   -41.7   164.2   1
   2  21 -20   -92.3   148.4   1
   2  21 -18   135.2    97.0   1
   2  21 -16   362.6    64.8   1
   2  21 -15   -61.8    52.4   1
   2  21 -14   476.1    49.1   1
   2  21 -13   195.0    39.9   1
   2  21 -12   -36.0    34.3   1
   2  21 -11   -23.6    28.8   1
   2  21 -10   434.4    26.6   1
   2  21   7   839.3    49.8   1
   2  21   8   -28.7    25.8   1
   2  21   9   -24.4    28.5   1
   2  21  10   262.6    34.3   1
   2  21  11   -21.5    37.6   1
   2  21  12   520.4    47.9   1
   2  21  13   151.0    50.5   1
   2  21  14   107.3    62.2   1
   2  21  15    10.8    72.6   1
   2  21  16  2390.2   109.0   1
   2  21  20   637.8   214.6   1
   2  22 -19  -182.6   132.7   1
   2  22 -17   -31.5    86.4   1
   2  22 -13   502.3    46.1   1
   2  22 -11     3.9    29.1   1
   2  22   9   -32.1    33.9   1
   2  22  11   735.1    46.2   1
   2  22  13  1476.0    70.5   1
   2  22  15   693.8    81.4   1
   2  23 -20    15.9   181.2   1
   2  23 -18  -236.4   121.3   1
   2  23 -17  -104.3    98.5   1
   2  23 -16   -11.1    80.7   1
   2  23 -15  -140.1    66.4   1
   2  23 -14   368.1    59.2   1
   2  23 -13   111.8    48.1   1
   2  23 -12   568.2    45.1   1
   2  23 -11    -4.4    31.7   1
   2  23 -10  1213.9    45.3   1
   2  23   9   833.8    44.3   1
   2  23  10   866.4    48.8   1
   2  23  11   487.1    50.7   1
   2  23  12    14.1    53.8   1
   2  23  14   113.9    72.6   1
   2  23  16   105.7   116.3   1
   2  23  17   143.1   139.6   1
   2  23  18  -488.8   172.7   1
   2  24 -19   646.2   170.4   1
   2  24 -17   105.2   112.1   1
   2  24 -13   122.3    57.7   1
   2  24 -11   482.1    48.1   1
   2  24   9   499.5    49.1   1
   2  24  11   142.5    54.3   1
   2  24  13   -88.9    71.9   1
   2  24  15   -54.8   108.3   1
   2  24  17   888.7   160.3   1
   2  25 -18   542.6   156.0   1
   2  25 -17    56.5   131.3   1
   2  25 -16   337.7   108.7   1
   2  25 -15  -159.2    91.8   1
   2  25 -14   435.7    79.2   1
   2  25 -13  3157.5   111.9   1
   2  25 -12    11.1    54.9   1
   2  25 -11   100.8    51.2   1
   2  25  10   552.0    62.3   1
   2  25  11   655.3    70.4   1
   2  25  12   -87.5    75.0   1
   2  25  13  1046.2    94.2   1
   2  25  14    97.4   103.4   1
   2  25  15    76.3   119.7   1
   2  25  16  -296.3   146.0   1
   2  25  17  -111.6   169.2   1
   2  26 -13  -186.3    80.2   1
   2  26 -11   424.6    66.9   1
   2  26  11   -17.9    77.4   1
   2  26  13   348.0   102.9   1
   2  26  15  -127.0   136.7   1
   2  26  17   388.5   191.7   1
   2  27 -17  -367.4   166.2   1
   2  27 -16   321.2   144.5   1
   2  27 -15  -115.6   119.4   1
   2  27 -14   247.4   106.3   1
   2  27 -13   350.9    93.2   1
   2  27 -12   180.9    82.7   1
   2  27  11   315.5    91.1   1
   2  27  12   -12.7   100.4   1
   2  27  13  -114.0   112.3   1
   2  27  14   198.0   134.6   1
   2  27  15   570.4   160.2   1
   2  27  16  -123.2   183.9   1
   2  28 -15  -266.7   137.9   1
   2  28 -13   847.4   110.3   1
   2  29 -14  -119.5   151.0   1
   2  29 -13  -171.1   131.4   1
   2  29 -12  -164.8   115.9   1
   2  29  13   -48.3   125.5   1
   3   0 -17     1.6    25.0   1
   3   0 -16   573.7    27.2   1
   3   0  10   241.7    19.6   1
   3   0  11     4.5    17.4   1
   3   0  13   -12.2    19.8   1
   3   0  14   -42.0    23.0   1
   3   0  16   -12.8    33.4   1
   3   0  17   -82.1    41.6   1
   3   0  19   -66.9    68.5   1
   3   0  20   -18.8    89.3   1
   3   1 -25  -173.4   166.5   1
   3   1 -24    -6.1   115.3   1
   3   1 -22  -117.3    71.3   1
   3   1 -21   -25.5    50.7   1
   3   1 -20    43.2    39.5   1
   3   1 -19    89.3    31.1   1
   3   1 -18   121.6    24.7   1
   3   1 -17   417.8    21.9   1
   3   1 -16   479.0    19.5   1
   3   1 -15    22.9    14.6   1
   3   1 -13     4.8    13.3   1
   3   1 -12   436.4    18.8   1
   3   1 -11    99.0    12.0   1
   3   1 -10    -7.6    13.0   1
   3   1  -9    69.3    10.4   1
   3   1  -8   121.9     8.4   1
   3   1  -7  2155.3    56.5   1
   3   1  -5   424.6    11.5   1
   3   1   7   247.9    12.7   1
   3   1   8   124.8    13.0   1
   3   1   9    88.6    12.0   1
   3   1  10  1939.2    26.5   1
   3   1  11    32.3    12.4   1
   3   1  12    -5.8    13.7   1
   3   1  13   808.8    18.1   1
   3   1  14   398.4    17.5   1
   3   1  15    35.3    17.8   1
   3   1  16  1150.9    30.4   1
   3   1  17  1063.6    35.6   1
   3   1  18   269.2    36.5   1
   3   1  19  -136.2    44.8   1
   3   1  20    77.3    57.1   1
   3   1  21    30.9    79.9   1
   3   1  22   -53.7   104.1   1
   3   1  23    16.9   136.2   1
   3   1  24    42.7   194.9   1
   3   2 -24   282.0   123.6   1
   3   2 -23    -9.3    89.5   1
   3   2 -22    66.0    68.3   1
   3   2 -21   -23.9    42.8   1
   3   2 -20   -46.3    38.6   1
   3   2 -19   263.9    33.0   1
   3   2 -18   586.8    27.7   1
   3   2 -17  1447.2    31.8   1
   3   2 -16  1338.2    28.7   1
   3   2 -15    82.5    15.7   1
   3   2 -14   242.2    17.5   1
   3   2 -13   153.3    18.2   1
   3   2 -12  2113.0    38.2   1
   3   2 -10    23.8    13.5   1
   3   2  -9   103.0    10.5   1
   3   2  -8   111.3     7.8   1
   3   2  -7   374.7    15.3   1
   3   2  -5    79.5     4.5   1
   3   2   7   212.8    10.6   1
   3   2   8   327.7    13.6   1
   3   2   9    -3.3    11.3   1
   3   2  10   115.4    13.9   1
   3   2  11   420.5    15.5   1
   3   2  12  2033.2    30.6   1
   3   2  13    38.3    17.0   1
   3   2  14    26.5    19.6   1
   3   2  15   162.8    22.4   1
   3   2  16    45.8    26.2   1
   3   2  17    10.7    31.1   1
   3   2  18    80.4    39.4   1
   3   2  19   255.7    47.1   1
   3   2  20    33.2    57.7   1
   3   2  21   -67.7    78.3   1
   3   2  22   678.0   109.8   1
   3   2  23  -148.5   134.1   1
   3   2  24  -165.9   187.6   1
   3   3 -26   134.0   165.2   1
   3   3 -23   304.2    74.0   1
   3   3 -22   -27.7    53.5   1
   3   3 -20   271.0    39.9   1
   3   3 -19   341.9    33.4   1
   3   3 -17   177.1    22.8   1
   3   3 -16   688.8    24.5   1
   3   3 -14   903.1    28.4   1
   3   3 -13   710.0    28.2   1
   3   3 -10   458.8    20.0   1
   3   3  -8   329.9    11.8   1
   3   3  -7  1760.4    55.1   1
   3   3   7  1756.3    27.0   1
   3   3   8    11.7    11.3   1
   3   3  10   384.8    17.2   1
   3   3  11   413.9    16.7   1
   3   3  13   289.5    25.5   1
   3   3  14  1368.6    38.9   1
   3   4 -26  1173.8   164.7   1
   3   4 -24   278.9    91.5   1
   3   4 -23    74.8    71.8   1
   3   4 -22   -27.3    63.2   1
   3   4 -21    87.5    51.0   1
   3   4 -20   -42.1    40.4   1
   3   4 -19    26.1    32.8   1
   3   4 -18  3354.9    55.6   1
   3   4 -17  2313.0    44.9   1
   3   4 -16   101.5    22.1   1
   3   4 -15  1221.5    36.5   1
   3   4 -14   925.8    29.6   1
   3   4 -10   -18.3    12.8   1
   3   4  -9   365.6    15.0   1
   3   4  -8    16.5     7.1   1
   3   4  -7   604.3    14.6   1
   3   4  -6  1335.5    35.5   1
   3   4  -4   251.9     7.1   1
   3   4  -1   421.1     9.4   1
   3   4   0   145.5     4.1   1
   3   4   7   593.8    16.0   1
   3   4   8   124.5    11.6   1
   3   4   9   244.4    12.4   1
   3   4  10   138.6    16.3   1
   3   4  11   612.8    22.4   1
   3   4  12    68.6    17.5   1
   3   4  13    99.1    19.4   1
   3   4  14   -19.1    21.2   1
   3   4  15   670.3    27.0   1
   3   4  16  1047.2    34.8   1
   3   4  17   -77.0    33.4   1
   3   4  18  5010.3    97.4   1
   3   4  19   100.2    51.8   1
   3   4  20  -182.6    64.7   1
   3   4  21  -208.1    79.6   1
   3   4  22   576.6   112.8   1
   3   4  23   -35.0   136.2   1
   3   5 -26  -174.2   156.1   1
   3   5 -25  -137.1   118.1   1
   3   5 -24  -212.8    89.2   1
   3   5 -23   253.1    90.0   1
   3   5 -22   226.3    68.3   1
   3   5 -21   -91.8    53.1   1
   3   5 -20  1870.0    58.7   1
   3   5 -19   148.5    35.7   1
   3   5 -18   936.7    34.3   1
   3   5 -17   309.9    25.5   1
   3   5 -16   406.8    22.8   1
   3   5 -15  3475.9    66.9   1
   3   5 -14   602.2    26.8   1
   3   5 -10    92.6    14.2   1
   3   5  -9  1342.0    28.7   1
   3   5  -8    41.1     8.7   1
   3   5  -7   699.4    14.7   1
   3   5  -6   144.3     7.2   1
   3   5  -5   544.9    11.1   1
   3   5  -4   531.5    14.3   1
   3   5  -2  1483.3    27.7   1
   3   5   3    51.5     5.8   1
   3   5   6   255.7    10.5   1
   3   5   7    11.2     9.5   1
   3   5   8    22.6    11.0   1
   3   5   9   361.9    14.2   1
   3   5  10    64.1    16.8   1
   3   5  11   164.6    20.3   1
   3   5  12  2095.9    40.6   1
   3   5  13    45.6    22.8   1
   3   5  14    56.0    22.9   1
   3   5  15    -0.6    25.2   1
   3   5  16  2179.4    48.2   1
   3   5  17     6.0    35.0   1
   3   5  18    47.5    44.3   1
   3   5  19   -57.7    52.3   1
   3   5  20   -74.5    64.0   1
   3   5  21  -100.7    79.8   1
   3   5  22   872.4   117.2   1
   3   5  23   168.2   139.8   1
   3   6 -25   171.3   120.1   1
   3   6 -23   269.9    94.5   1
   3   6 -20   812.9    49.4   1
   3   6 -19  1028.3    53.9   1
   3   6 -17    -0.8    25.3   1
   3   6 -16   189.4    22.4   1
   3   6 -10   829.5    31.8   1
   3   6  -7    58.3     6.8   1
   3   6  -5  1139.3    17.1   1
   3   6  -4   169.0     7.3   1
   3   6  -2  1010.8    17.4   1
   3   6  -1    80.1     6.1   1
   3   6   5  1732.3    35.6   1
   3   6   7    37.0    10.9   1
   3   6   8   668.3    19.3   1
   3   6  10   482.5    29.3   1
   3   6  11   212.0    22.6   1
   3   6  13   352.8    34.4   1
   3   6  16    99.1    41.7   1
   3   6  17    45.6    36.4   1
   3   7 -26  -355.9   156.9   1
   3   7 -24  -102.0   121.1   1
   3   7 -22    -7.0    73.0   1
   3   7 -21  1144.0    64.8   1
   3   7 -20  2338.1    68.2   1
   3   7 -19  2017.1    58.4   1
   3   7 -18  1027.9    39.1   1
   3   7 -17   182.7    28.0   1
   3   7 -16   211.4    24.7   1
   3   7 -15   294.8    29.6   1
   3   7 -14   148.0    25.5   1
   3   7 -12   418.7    25.2   1
   3   7  -9   304.9    17.4   1
   3   7  -8    91.8    10.1   1
   3   7  -7   318.0     9.7   1
   3   7  -6   445.7    10.1   1
   3   7  -5  2373.1    32.9   1
   3   7  -4   462.4     8.5   1
   3   7  -3  1852.5    41.6   1
   3   7  -2    39.3     4.7   1
   3   7   0   345.5     9.7   1
   3   7   1   191.6     8.4   1
   3   7   2    18.8     5.4   1
   3   7   3  1741.1    31.4   1
   3   7   4    63.4    13.6   1
   3   7   5   278.4    15.6   1
   3   7   6    41.6     9.0   1
   3   7   7  3246.8    54.9   1
   3   7   8    14.3    14.1   1
   3   7   9   555.9    19.3   1
   3   7  10  1347.1    33.5   1
   3   7  11   343.3    25.7   1
   3   7  12    43.6    23.9   1
   3   7  13   -10.2    26.1   1
   3   7  14    68.7    27.8   1
   3   7  15  1882.8    43.7   1
   3   7  16   166.9    34.4   1
   3   7  17     8.6    37.5   1
   3   7  18   460.7    50.2   1
   3   7  19    51.8    58.5   1
   3   7  20    28.0    88.6   1
   3   7  21   175.4    84.2   1
   3   7  22  -101.0   115.3   1
   3   7  23  3092.3   177.9   1
   3   8 -24  -135.9   127.5   1
   3   8 -23   697.7   102.8   1
   3   8 -22   -57.4    75.5   1
   3   8 -21   -32.9    58.3   1
   3   8 -20   619.4    53.3   1
   3   8 -19   -60.3    39.1   1
   3   8 -18    54.0    33.8   1
   3   8 -17   729.9    34.0   1
   3   8 -16   -13.4    25.8   1
   3   8 -15  2197.5    62.6   1
   3   8 -13  6976.4   119.2   1
   3   8  -8    77.1    11.4   1
   3   8  -7   862.9    16.2   1
   3   8  -6  1432.9    23.9   1
   3   8  -5   202.2     6.8   1
   3   8  -4    22.3     5.1   1
   3   8  -3  2230.8    80.0   1
   3   8  -2    36.6     5.6   1
   3   8  -1    42.1     7.3   1
   3   8   0    57.9     6.6   1
   3   8   1    89.9     7.1   1
   3   8   2    80.5     6.8   1
   3   8   3   180.0     8.1   1
   3   8   5   469.9    13.8   1
   3   8   6    19.3    10.4   1
   3   8   7    13.1    12.0   1
   3   8   8    -2.9    15.8   1
   3   8   9   258.8    18.6   1
   3   8  10   800.7    25.5   1
   3   8  11    29.0    27.9   1
   3   8  12    62.6    25.2   1
   3   8  13    41.0    28.0   1
   3   8  14  1435.2    43.6   1
   3   8  15     6.3    31.5   1
   3   8  16   298.9    37.0   1
   3   8  17    46.4    40.4   1
   3   8  18   233.5    50.6   1
   3   8  19  -223.6    61.6   1
   3   8  20  1257.2    83.4   1
   3   8  21   303.3    90.5   1
   3   8  23  -220.1   153.8   1
   3   9 -20   119.3    52.7   1
   3   9 -19    70.9    43.7   1
   3   9 -17    26.7    31.7   1
   3   9 -16   471.4    30.8   1
   3   9 -14   506.0    32.2   1
   3   9 -13   591.4    37.8   1
   3   9 -11   243.9    22.5   1
   3   9 -10    16.6    19.8   1
   3   9  -8  1545.7    34.9   1
   3   9  -7   137.8    12.7   1
   3   9  -5  2402.3    46.0   1
   3   9  -4  3537.6    37.9   1
   3   9  -2   950.3    20.8   1
   3   9  -1  1282.0    27.3   1
   3   9   1   345.8    10.0   1
   3   9   2  2763.4    44.4   1
   3   9   4    27.8     9.3   1
   3   9   5  1015.1    27.2   1
   3   9   7    96.2    14.3   1
   3   9   8  1221.0    32.3   1
   3   9  10   198.4    22.1   1
   3   9  11   -10.6    26.3   1
   3   9  13  2062.3    49.0   1
   3   9  14   394.0    32.0   1
   3   9  16   134.8    46.6   1
   3  10 -24    22.8   141.8   1
   3  10 -23    32.9   112.1   1
   3  10 -22  1543.7    97.6   1
   3  10 -21   261.2    67.2   1
   3  10 -20  1185.7    62.9   1
   3  10 -19    90.9    51.1   1
   3  10 -17   460.0    35.1   1
   3  10 -16   536.7    38.8   1
   3  10 -15   381.8    32.2   1
   3  10 -14   779.8    37.8   1
   3  10 -13   980.4    48.3   1
   3  10 -11  2063.3    49.7   1
   3  10 -10   917.7    28.5   1
   3  10  -9  1684.9    76.9   1
   3  10  -8   219.9    27.5   1
   3  10  -7    10.5    16.8   1
   3  10  -6  1216.1    60.8   1
   3  10  -5  4161.3    68.5   1
   3  10  -4    -4.7     6.4   1
   3  10  -3   843.1    17.5   1
   3  10  -2   145.5     6.9   1
   3  10  -1  1397.9    21.5   1
   3  10   0  7344.1   113.7   1
   3  10   1  1017.5    16.7   1
   3  10   2   133.4     6.4   1
   3  10   3   568.1    12.7   1
   3  10   4  1977.0    36.0   1
   3  10   5   -16.2    11.7   1
   3  10   6   305.6    15.7   1
   3  10   7   281.8    16.3   1
   3  10   8  4030.8    64.4   1
   3  10   9   228.6    19.3   1
   3  10  10  1964.5    62.2   1
   3  10  11  6376.9    88.9   1
   3  10  12    19.4    26.2   1
   3  10  13   -49.5    29.8   1
   3  10  14    85.9    29.2   1
   3  10  15  1599.5    45.7   1
   3  10  17   101.5    64.9   1
   3  10  18  1285.2    63.0   1
   3  10  19  3832.7   103.9   1
   3  10  20  1018.1    86.6   1
   3  10  21   752.7   101.7   1
   3  10  22   167.6   131.2   1
   3  10  23   392.1   165.2   1
   3  11 -24   795.6   154.5   1
   3  11 -23   412.5   119.4   1
   3  11 -22   213.6    89.8   1
   3  11 -21  -205.5    71.2   1
   3  11 -20  2170.2    75.3   1
   3  11 -19  -114.8    47.5   1
   3  11 -18   -17.2    39.8   1
   3  11 -16   691.9    35.8   1
   3  11 -15    14.6    32.0   1
   3  11 -13   -11.9    28.7   1
   3  11 -12    45.8    31.8   1
   3  11 -11 11331.9   274.7   1
   3  11 -10    19.3    28.6   1
   3  11  -9    63.3    51.0   1
   3  11  -8    23.7    25.2   1
   3  11  -5   527.0    19.5   1
   3  11  -4  1103.5    22.8   1
   3  11  -3  8407.1   214.3   1
   3  11  -2  1064.0    16.2   1
   3  11  -1  1760.4    22.9   1
   3  11   0   283.3    13.8   1
   3  11   1   115.6     6.9   1
   3  11   2  1361.9    21.8   1
   3  11   3    83.4    12.4   1
   3  11   4   435.4    14.3   1
   3  11   5   970.4    21.1   1
   3  11   6    33.6    13.7   1
   3  11   7   933.7    28.9   1
   3  11   8   -22.0    18.5   1
   3  11   9   252.6    22.6   1
   3  11  10  2357.0    50.7   1
   3  11  11  1325.2    38.5   1
   3  11  12   -69.1    28.0   1
   3  11  13  4123.8    73.4   1
   3  11  14   286.5    34.2   1
   3  11  15   -30.2    35.6   1
   3  11  16   848.9    45.4   1
   3  11  18   -88.8    57.0   1
   3  11  20     2.5    87.5   1
   3  11  21   139.1   103.7   1
   3  11  22    13.3   134.7   1
   3  12 -23   275.3   126.8   1
   3  12 -22   185.2    94.5   1
   3  12 -20   -34.4    60.4   1
   3  12 -19   162.6    53.0   1
   3  12 -17  -111.6    36.6   1
   3  12 -16   367.1    35.7   1
   3  12 -14    47.5    30.0   1
   3  12 -13   289.5    32.8   1
   3  12  -5   916.2    38.9   1
   3  12  -4   347.5    16.4   1
   3  12  -2    65.9     7.6   1
   3  12  -1   320.0     9.0   1
   3  12   1   901.1    15.9   1
   3  12   2     5.0     8.3   1
   3  12   4    49.1     9.5   1
   3  12   5  3347.5    42.8   1
   3  12   7   262.9    18.9   1
   3  12   8   937.7    29.5   1
   3  12  10  1719.3    49.6   1
   3  12  11    53.2    24.9   1
   3  12  13  1987.9    50.1   1
   3  12  16   -14.7    42.3   1
   3  12  17   703.8    54.9   1
   3  12  19  1169.0    80.7   1
   3  13 -24   103.7   168.4   1
   3  13 -23  1014.5   139.3   1
   3  13 -22    17.5   102.4   1
   3  13 -20  -141.5    63.9   1
   3  13 -18   904.6    51.7   1
   3  13 -17  2021.6    56.7   1
   3  13 -15    23.6    30.5   1
   3  13 -14   -70.7    31.0   1
   3  13 -13   718.5    36.0   1
   3  13  -4     4.9    14.7   1
   3  13  -3   191.9    10.5   1
   3  13  -2   116.9     8.3   1
   3  13  -1   649.3    14.9   1
   3  13   0  1764.0    35.5   1
   3  13   1    93.5     8.1   1
   3  13   2   528.6    12.8   1
   3  13   3   351.2    13.6   1
   3  13   4  1889.9    37.2   1
   3  13   5  1038.1    24.5   1
   3  13   6    21.5    20.0   1
   3  13   7   146.7    18.0   1
   3  13   8  2669.9    54.0   1
   3  13   9  1905.1    50.5   1
   3  13  10     3.3    24.5   1
   3  13  11   579.7    30.7   1
   3  13  12   658.6    35.1   1
   3  13  13    14.0    29.7   1
   3  13  14  3531.4    80.4   1
   3  13  15  -119.2    40.2   1
   3  13  16   612.9    47.9   1
   3  13  17   226.5    73.5   1
   3  13  18  7658.1   157.0   1
   3  13  21  -467.0   153.2   1
   3  14 -24     1.4   183.5   1
   3  14 -21  -142.7    88.1   1
   3  14 -19  1016.5    66.1   1
   3  14 -18    40.0    51.0   1
   3  14 -16   447.9    39.6   1
   3  14 -15   -25.2    33.8   1
   3  14 -13   119.9    30.3   1
   3  14  -4  2862.5    70.4   1
   3  14  -3   661.4    28.7   1
   3  14  -2    21.0     9.7   1
   3  14  -1   558.1    17.1   1
   3  14   0  3482.3   126.2   1
   3  14   1  3825.2    49.3   1
   3  14   2   634.0    15.8   1
   3  14   3   127.7    13.5   1
   3  14   4  1518.5    30.8   1
   3  14   5   983.9    27.0   1
   3  14   6   214.9    18.9   1
   3  14   7   617.6    25.6   1
   3  14   8   -19.5    22.2   1
   3  14   9    43.3    22.5   1
   3  14  10    -2.7    23.6   1
   3  14  11   883.4    38.2   1
   3  14  12   558.5    32.0   1
   3  14  13   221.7    32.4   1
   3  14  14   142.4    37.0   1
   3  14  15   -26.9    41.3   1
   3  14  16   -15.9    56.1   1
   3  14  17   -10.1    69.5   1
   3  14  18   -22.5    82.9   1
   3  14  21  -511.4   167.9   1
   3  15 -20   208.4    79.4   1
   3  15 -19   116.7    64.9   1
   3  15 -17  1063.5    51.9   1
   3  15 -16   163.6    39.0   1
   3  15 -14   111.7    29.6   1
   3  15 -13     5.3    31.4   1
   3  15 -11     5.0    24.4   1
   3  15  -4  2157.9    54.6   1
   3  15  -2   772.9    20.3   1
   3  15  -1  3576.5    61.3   1
   3  15   1   993.1    24.1   1
   3  15   2    31.3    10.6   1
   3  15   4  1761.2    33.7   1
   3  15   5  1546.9    28.6   1
   3  15   7    -4.9    17.5   1
   3  15   8   292.0    20.1   1
   3  15  10  1101.7    33.4   1
   3  15  11   103.5    28.8   1
   3  15  13   748.0    37.6   1
   3  15  14   528.5    40.5   1
   3  15  16   471.1    64.3   1
   3  15  17   723.3    82.3   1
   3  15  20   805.4   145.2   1
   3  16 -24  -345.3   209.4   1
   3  16 -23   -21.4   169.6   1
   3  16 -21   -96.3   103.0   1
   3  16 -20    40.9    86.2   1
   3  16 -18    57.5    61.4   1
   3  16 -17   -92.9    47.8   1
   3  16 -15     5.0    36.4   1
   3  16 -14   252.7    33.2   1
   3  16 -13  2180.0    58.3   1
   3  16 -11   -14.9    26.8   1
   3  16 -10   593.0    28.9   1
   3  16  -2   186.7    18.6   1
   3  16  -1    22.9    17.4   1
   3  16   0     7.9    26.1   1
   3  16   1   142.0    14.9   1
   3  16   2  1220.1    26.1   1
   3  16   3  2530.3    50.7   1
   3  16   4    92.0    14.3   1
   3  16   5   188.4    17.2   1
   3  16   6    20.3    15.7   1
   3  16   7  1431.9    33.6   1
   3  16   8  2595.3    50.8   1
   3  16   9   -19.1    22.4   1
   3  16  11   902.5    30.7   1
   3  16  12  2838.3    57.9   1
   3  16  14   -48.5    39.2   1
   3  16  15  1483.4    65.1   1
   3  16  17   -60.9    80.7   1
   3  16  18    94.0   100.9   1
   3  16  21  -286.1   196.5   1
   3  17 -23   248.2   181.5   1
   3  17 -22   494.1   150.5   1
   3  17 -21   669.8   121.7   1
   3  17 -19    -6.9    76.8   1
   3  17 -18  -126.1    63.1   1
   3  17 -16   182.2    44.4   1
   3  17 -15    91.3    36.5   1
   3  17 -14   -32.8    32.7   1
   3  17 -13   179.7    27.4   1
   3  17 -12   102.5    25.8   1
   3  17 -11   338.9    29.5   1
   3  17 -10  2243.6    54.4   1
   3  17  -2  1958.4   116.4   1
   3  17  -1    42.4    34.2   1
   3  17   0   836.8    41.6   1
   3  17   1   960.4    32.2   1
   3  17   2  1778.8    63.5   1
   3  17   4   108.4    16.8   1
   3  17   5    75.2    15.5   1
   3  17   6  3670.5    66.7   1
   3  17   7  1054.9    28.9   1
   3  17   8  1296.1    40.6   1
   3  17   9   -17.7    22.1   1
   3  17  10   386.0    24.4   1
   3  17  11    55.4    32.4   1
   3  17  12   -56.8    31.2   1
   3  17  13   366.4    36.9   1
   3  17  15  -156.1    58.5   1
   3  17  16   -45.0    72.4   1
   3  17  17   213.9   106.5   1
   3  17  18  1430.1   120.1   1
   3  17  19     1.5   131.9   1
   3  18 -23    11.8   198.6   1
   3  18 -22  -408.6   161.0   1
   3  18 -20  2096.4   115.4   1
   3  18 -19  -139.7    79.8   1
   3  18 -17   256.8    59.1   1
   3  18 -16  1131.9    55.0   1
   3  18 -14  1693.8    47.8   1
   3  18 -13  1266.4    37.3   1
   3  18 -11    47.7    21.4   1
   3  18  -2    47.4    52.6   1
   3  18   1  1320.9    54.3   1
   3  18   2  2310.4    99.4   1
   3  18   5   151.8    20.3   1
   3  18   7   628.6    20.9   1
   3  18   8  2641.7    39.9   1
   3  18  10    14.2    25.1   1
   3  18  11   -78.6    28.3   1
   3  18  13   175.4    38.5   1
   3  18  14   188.7    52.9   1
   3  18  16  1377.1    86.7   1
   3  18  17    33.2    96.8   1
   3  18  19  -501.1   148.6   1
   3  18  20   -77.0   187.8   1
   3  19 -20   164.7   113.2   1
   3  19 -18  -101.5    73.5   1
   3  19 -17   220.5    61.5   1
   3  19 -15   777.9    47.5   1
   3  19 -14   578.9    39.8   1
   3  19 -13    28.4    28.2   1
   3  19 -11    83.5    24.0   1
   3  19 -10  1594.6    34.5   1
   3  19  -9   202.3    19.6   1
   3  19   1   508.2    41.4   1
   3  19   6   364.7    23.6   1
   3  19   7   746.6    29.3   1
   3  19   8  1447.5    33.7   1
   3  19   9   848.5    28.8   1
   3  19  10    93.2    27.4   1
   3  19  11  1594.0    42.4   1
   3  19  12   584.6    37.8   1
   3  19  13    52.6    39.5   1
   3  19  14    28.9    57.7   1
   3  19  15   352.9    73.5   1
   3  19  17  -319.9   106.6   1
   3  19  18  -256.4   126.5   1
   3  19  20  -234.8   205.3   1
   3  20 -22  1727.0   202.9   1
   3  20 -21  -298.7   157.5   1
   3  20 -19  2013.9   113.6   1
   3  20 -18  1268.2    90.6   1
   3  20 -15   -79.8    47.0   1
   3  20 -14    41.7    40.2   1
   3  20 -13   -29.4    30.5   1
   3  20 -12  1885.8    44.2   1
   3  20 -11   -26.5    24.8   1
   3  20 -10    -5.3    21.9   1
   3  20   6    41.3    25.3   1
   3  20   7    -6.9    26.3   1
   3  20   8    51.2    24.6   1
   3  20   9   -44.0    24.6   1
   3  20  10  2623.0    52.9   1
   3  20  11   283.5    35.9   1
   3  20  12    65.0    36.3   1
   3  20  13    11.0    53.0   1
   3  20  14   246.2    65.5   1
   3  20  15  -175.1    74.4   1
   3  20  16    76.8    92.2   1
   3  20  18  -202.1   146.3   1
   3  20  19  2823.8   204.9   1
   3  21 -22  -334.5   213.7   1
   3  21 -20  -517.1   141.9   1
   3  21 -19   106.1   115.2   1
   3  21 -17     4.6    73.2   1
   3  21 -16  1228.0    67.9   1
   3  21 -14   244.0    43.5   1
   3  21 -13   209.3    33.3   1
   3  21 -11   190.8    26.3   1
   3  21 -10    -7.6    23.5   1
   3  21   7  1210.0    43.0   1
   3  21   8   340.8    31.0   1
   3  21  10   -22.2    29.6   1
   3  21  11   -93.2    34.0   1
   3  21  13   190.4    61.6   1
   3  21  14   425.2    73.4   1
   3  21  16  1362.6   114.3   1
   3  21  17   286.4   130.1   1
   3  21  19  -241.1   203.8   1
   3  22 -21  -538.9   181.6   1
   3  22 -20  1359.2   159.3   1
   3  22 -19   456.5   129.8   1
   3  22 -18   669.5    99.6   1
   3  22 -15   135.2    56.0   1
   3  22 -14   -95.8    49.1   1
   3  22 -13   105.7    36.8   1
   3  22 -11    22.2    28.7   1
   3  22   7    18.7    36.1   1
   3  22   8   248.9    40.8   1
   3  22   9   423.9    32.5   1
   3  22  10  2223.1    59.8   1
   3  22  11   -60.3    39.3   1
   3  22  12   498.8    47.0   1
   3  22  13   303.4    64.8   1
   3  22  14    64.1    78.2   1
   3  22  15   -98.9    94.7   1
   3  22  17   -42.9   143.0   1
   3  22  18   459.6   180.3   1
   3  23 -21  -613.5   207.3   1
   3  23 -19  -155.2   136.7   1
   3  23 -18  -178.1   116.8   1
   3  23 -16  -144.3    74.3   1
   3  23 -15   -77.6    61.6   1
   3  23 -14   -16.7    45.4   1
   3  23 -13   -23.6    39.7   1
   3  23 -12   568.5    40.3   1
   3  23 -11    -6.7    32.6   1
   3  23   8   278.7    47.4   1
   3  23   9    51.8    43.5   1
   3  23  10   789.6    43.0   1
   3  23  12  1778.6    66.2   1
   3  23  13    74.2    74.0   1
   3  23  14   123.5    87.9   1
   3  23  15  -205.6   105.9   1
   3  23  16  -142.2   130.9   1
   3  23  18   863.3   196.8   1
   3  24 -19   951.4   155.7   1
   3  24 -17    39.4   105.0   1
   3  24 -16    99.9    85.3   1
   3  24 -14   -61.9    51.0   1
   3  24 -13  -107.9    45.7   1
   3  24 -11   -66.1    41.8   1
   3  24  10  -136.0    42.7   1
   3  24  11   482.5    51.1   1
   3  24  13   313.4    86.0   1
   3  24  14    88.8   101.1   1
   3  24  16  -354.3   146.2   1
   3  24  17  -162.5   177.4   1
   3  25 -19    69.5   171.6   1
   3  25 -18   -16.0   142.6   1
   3  25 -17    94.7   117.8   1
   3  25 -16     6.6    99.5   1
   3  25 -15    88.6    81.4   1
   3  25 -13   -17.7    50.5   1
   3  25  10  1092.8    74.8   1
   3  25  11  1715.7    70.6   1
   3  25  12   -56.0    62.9   1
   3  25  13    20.7    98.8   1
   3  25  14   118.0   119.2   1
   3  25  15  -316.7   136.3   1
   3  25  16  -115.7   165.2   1
   3  26 -19  -134.0   190.9   1
   3  26 -18   103.6   160.1   1
   3  26 -17   -79.4   133.1   1
   3  26 -16  -132.7   114.6   1
   3  26 -15   -35.2    98.0   1
   3  26 -14   758.1    72.9   1
   3  26 -13   390.8    59.9   1
   3  26  10   -19.8    78.7   1
   3  26  11   169.9    64.3   1
   3  26  12   317.6    73.8   1
   3  26  13   196.1   112.9   1
   3  26  14   542.6   137.5   1
   3  26  15  -190.3   152.8   1
   3  27 -17  1012.6   158.3   1
   3  27 -16   -31.1   129.0   1
   3  27 -14    83.5    78.5   1
   3  27 -13   108.2    69.7   1
   3  27  11    25.5   104.8   1
   3  27  13  -176.6   131.6   1
   3  28 -15  -101.3   102.1   1
   3  28 -14  -219.0    91.4   1
   3  28  12   -88.5    99.0   1
   3  29 -15   397.9   120.6   1
   3  29 -14   872.5   115.4   1
   4   0   9    -6.5    16.5   1
   4   0  13     7.2    26.8   1
   4   0  15   -45.2    30.6   1
   4   0  17   -31.4    47.3   1
   4   0  19   133.5    84.8   1
   4   1 -24    86.9   119.6   1
   4   1 -23   -68.8    88.6   1
   4   1 -22   280.2    70.8   1
   4   1 -21    94.9    50.3   1
   4   1 -20   -49.3    38.2   1
   4   1 -19    44.6    26.2   1
   4   1 -18   270.4    22.5   1
   4   1 -17   -23.7    17.1   1
   4   1 -15  1269.7    26.6   1
   4   1 -14   245.5    15.7   1
   4   1 -13     2.0    11.7   1
   4   1 -12    65.9    13.5   1
   4   1 -11    22.1    14.5   1
   4   1 -10    23.9    10.4   1
   4   1  -9     9.3     8.8   1
   4   1  -8   677.6    18.8   1
   4   1  -5   159.9     8.2   1
   4   1   7   468.9    14.7   1
   4   1   8    84.6    14.2   1
   4   1   9     1.7    13.4   1
   4   1  10   358.4    16.9   1
   4   1  11   111.9    13.9   1
   4   1  12   547.3    18.1   1
   4   1  13   152.3    16.9   1
   4   1  14   103.3    19.6   1
   4   1  15  1712.6    33.4   1
   4   1  16   276.4    28.8   1
   4   1  17   813.5    38.0   1
   4   1  18    95.1    38.3   1
   4   1  19    43.3    48.9   1
   4   1  20   -63.9    61.1   1
   4   1  21    -1.6    81.9   1
   4   1  22   460.0   112.8   1
   4   1  23   365.5   164.8   1
   4   2 -23   -29.1    88.1   1
   4   2 -21   429.8    42.0   1
   4   2 -19   609.0    28.8   1
   4   2 -17   400.8    20.7   1
   4   2 -13   129.8    16.2   1
   4   2 -11  1502.0    29.5   1
   4   2  -9    24.8     7.4   1
   4   2  -7    72.2     7.3   1
   4   2   7    34.2    12.7   1
   4   2   9    -1.3    11.6   1
   4   2  11  1582.5    27.6   1
   4   2  13   113.0    17.3   1
   4   2  15   425.4    26.1   1
   4   2  17   126.8    38.5   1
   4   2  19   -77.3    55.8   1
   4   2  21   785.7    94.3   1
   4   2  23    -7.9   155.6   1
   4   3 -25     2.7   147.3   1
   4   3 -24  -212.0   108.0   1
   4   3 -23    73.4    65.2   1
   4   3 -22    19.3    48.0   1
   4   3 -21    37.0    39.7   1
   4   3 -20   909.8    37.8   1
   4   3 -19  1037.0    33.0   1
   4   3 -18  1668.7    37.5   1
   4   3 -17   733.2    25.2   1
   4   3 -15    36.8    18.4   1
   4   3 -14   127.7    16.3   1
   4   3 -13  1530.0    34.0   1
   4   3 -12  1563.6    31.0   1
   4   3 -11   150.0    12.7   1
   4   3 -10   625.1    15.7   1
   4   3  -9   901.5    17.4   1
   4   3  -7    80.6     6.8   1
   4   3  -6   147.0     7.5   1
   4   3  -4   976.7    15.7   1
   4   3  -2   109.5     5.3   1
   4   3   8     3.2    14.5   1
   4   3   9  1101.8    20.9   1
   4   3  10   118.6    14.4   1
   4   3  11    32.6    17.3   1
   4   3  12    26.2    16.5   1
   4   3  13   262.3    18.8   1
   4   3  14   198.7    23.8   1
   4   3  15    65.0    27.9   1
   4   3  16  1158.4    42.9   1
   4   3  17   327.9    45.4   1
   4   3  18   -57.6    56.7   1
   4   3  19    21.1    56.4   1
   4   3  20   971.0    82.3   1
   4   3  21   100.8    96.1   1
   4   3  22    -7.7   124.4   1
   4   3  23  -187.6   159.5   1
   4   4 -23   307.3    88.3   1
   4   4 -15   664.8    27.0   1
   4   4 -13   438.0    23.6   1
   4   4 -11   288.4    15.9   1
   4   4  -9  1666.9    26.8   1
   4   4  -7  2495.6    38.6   1
   4   4  -5  1826.6    25.7   1
   4   4  -3    16.8     4.6   1
   4   4   1  1101.1    25.7   1
   4   4   7   285.8    15.0   1
   4   4   9    71.3    13.6   1
   4   4  11   141.8    17.2   1
   4   4  13    35.0    37.3   1
   4   4  15  1001.7    62.9   1
   4   4  17   523.1    63.8   1
   4   4  19   607.2    78.2   1
   4   5 -25   528.4   144.0   1
   4   5 -23    24.7    85.9   1
   4   5 -21   807.8    55.7   1
   4   5 -20   258.2    36.8   1
   4   5 -19  1966.2    45.9   1
   4   5 -18    70.7    25.3   1
   4   5 -17    89.4    27.5   1
   4   5 -16    50.4    24.8   1
   4   5 -15   266.1    23.9   1
   4   5 -14   967.9    37.9   1
   4   5 -13    12.9    20.6   1
   4   5 -12  2852.3    52.9   1
   4   5 -11  1288.6    32.6   1
   4   5 -10   229.6    12.0   1
   4   5  -9    79.0     8.9   1
   4   5  -8    25.4     9.0   1
   4   5  -7    16.6     6.6   1
   4   5  -6  1179.0    24.3   1
   4   5  -5  1238.8    21.6   1
   4   5  -3   678.6    17.0   1
   4   5   0   176.2    12.3   1
   4   5   4   152.1    13.3   1
   4   5   8  1378.2    33.6   1
   4   5   9   515.4    21.0   1
   4   5  10  2668.5    39.3   1
   4   5  11    72.9    17.9   1
   4   5  12   886.0    28.3   1
   4   5  13   670.7    27.1   1
   4   5  14    -5.4    28.6   1
   4   5  15   135.1    32.5   1
   4   5  16  1284.2    45.9   1
   4   5  17   472.5    48.6   1
   4   5  18   392.0    60.9   1
   4   5  19   -38.7    60.1   1
   4   5  20   435.0    77.5   1
   4   5  21   793.6   103.3   1
   4   5  22   118.0   128.8   1
   4   6 -25  -145.8   145.7   1
   4   6 -23   259.7    90.4   1
   4   6 -21    27.6    51.2   1
   4   6 -19   279.2    30.9   1
   4   6 -17    26.6    22.5   1
   4   6 -15  2130.3    45.9   1
   4   6 -11   389.5    23.4   1
   4   6  -9    68.0    10.3   1
   4   6  -7  3605.2    53.7   1
   4   6  -5  2831.9    42.5   1
   4   6  -3  1812.4    43.2   1
   4   6  -1  1721.9    34.2   1
   4   6   7    91.5    12.2   1
   4   6   9   752.0    27.5   1
   4   6  11   862.0    28.4   1
   4   6  13   841.7    29.8   1
   4   6  15   -38.9    33.8   1
   4   6  17   301.1    49.3   1
   4   6  19   -52.6    63.2   1
   4   6  21  1095.6   108.2   1
   4   6  23   813.5   172.8   1
   4   7 -25  -210.1   146.0   1
   4   7 -24  -180.0   113.8   1
   4   7 -23    64.5    92.1   1
   4   7 -22   377.6    70.7   1
   4   7 -21   546.4    56.9   1
   4   7 -20    13.1    43.1   1
   4   7 -19   -34.9    33.7   1
   4   7 -18    -4.4    28.2   1
   4   7 -17   133.9    25.2   1
   4   7 -16  1479.1    44.6   1
   4   7 -15   186.1    24.9   1
   4   7 -11  2954.8    62.5   1
   4   7 -10  2264.3    50.9   1
   4   7  -9   704.8    17.3   1
   4   7  -8   892.6    23.1   1
   4   7  -7    13.8     6.5   1
   4   7  -6   128.3     6.1   1
   4   7  -5  1368.8    26.7   1
   4   7  -3    18.0     5.6   1
   4   7  -1  1185.9    31.0   1
   4   7   1   986.8    20.3   1
   4   7   3    12.5     8.6   1
   4   7   4    24.5    11.7   1
   4   7   5    96.5    11.3   1
   4   7   6   431.8    17.7   1
   4   7   7   142.5    13.7   1
   4   7   9  2786.6    48.2   1
   4   7  10  3784.3    62.6   1
   4   7  11   493.0    24.9   1
   4   7  12   500.9    27.8   1
   4   7  13     6.9    26.1   1
   4   7  14     4.3    30.8   1
   4   7  15    22.6    35.4   1
   4   7  16  1620.8    55.6   1
   4   7  17    -2.1    51.7   1
   4   7  18  2054.4    81.1   1
   4   7  19   842.5    71.6   1
   4   7  20  2516.6   103.0   1
   4   7  21   148.3   103.2   1
   4   7  23   -53.7   171.5   1
   4   8 -23   -66.7    95.5   1
   4   8 -21   841.5    61.9   1
   4   8 -17  1038.4    32.9   1
   4   8 -15  1444.5    42.9   1
   4   8 -11  4501.0    82.4   1
   4   8  -9    19.9    13.2   1
   4   8  -7    82.8     7.4   1
   4   8  -5   107.2     6.4   1
   4   8  -3   990.6    22.9   1
   4   8   3    17.6     8.8   1
   4   8   5   400.0    15.0   1
   4   8   7   256.7    17.5   1
   4   8   9     1.5    24.0   1
   4   8  13   874.6    57.2   1
   4   8  15   244.9    44.2   1
   4   8  21  1425.1   116.5   1
   4   9 -24    89.1   126.7   1
   4   9 -23   370.2   100.5   1
   4   9 -22   191.8    74.7   1
   4   9 -21   325.1    60.6   1
   4   9 -20   407.8    50.8   1
   4   9 -19  1306.1    50.0   1
   4   9 -18   611.7    34.5   1
   4   9 -16   190.1    32.2   1
   4   9 -15   537.3    33.8   1
   4   9 -14  1051.5    45.0   1
   4   9 -11    99.2    27.1   1
   4   9 -10  5948.1   103.0   1
   4   9  -9  2724.8    45.4   1
   4   9  -8  1115.8    34.7   1
   4   9  -7  3296.1    37.5   1
   4   9  -6   119.6     8.5   1
   4   9  -5   728.8    15.7   1
   4   9  -4  2348.5    74.1   1
   4   9  -3  1729.5    32.8   1
   4   9  -2   895.2    18.8   1
   4   9  -1  1227.0    23.5   1
   4   9   1   958.3    20.5   1
   4   9   2  1454.9    37.0   1
   4   9   3   216.7    10.8   1
   4   9   4   168.8    12.1   1
   4   9   5    32.0    13.6   1
   4   9   6   128.7    16.6   1
   4   9   7    36.0    18.7   1
   4   9   8   100.5    19.4   1
   4   9   9     4.0    21.2   1
   4   9  10   343.9    25.6   1
   4   9  11   269.6    28.7   1
   4   9  12   577.5    35.0   1
   4   9  13    98.3    38.9   1
   4   9  14   665.6    37.2   1
   4   9  15   412.6    40.6   1
   4   9  16   -91.5    46.6   1
   4   9  17   386.9    58.2   1
   4   9  18   111.2    60.5   1
   4   9  19   206.2    72.6   1
   4   9  20    24.2    88.3   1
   4   9  21   328.0   112.9   1
   4   9  22   391.2   150.1   1
   4  10 -25  -448.8   164.7   1
   4  10 -23  -202.8   104.2   1
   4  10 -21   184.8    64.0   1
   4  10 -19   517.5    47.4   1
   4  10 -17   234.5    35.7   1
   4  10 -15   299.2    33.0   1
   4  10 -11   289.4    30.7   1
   4  10  -9  2891.3    53.9   1
   4  10  -7  2761.4    43.5   1
   4  10  -5  1964.2    32.2   1
   4  10  -3   223.5    10.2   1
   4  10  -1  4106.5    60.5   1
   4  10   1   216.4     8.3   1
   4  10   3   135.0     9.8   1
   4  10   5   307.5    17.6   1
   4  10   7   204.7    19.7   1
   4  10   9   413.6    24.6   1
   4  10  11   148.2    29.2   1
   4  10  13    14.7    31.4   1
   4  10  15   267.9    42.2   1
   4  10  17   933.0    66.3   1
   4  10  19  -100.5    76.1   1
   4  10  21   937.8   123.4   1
   4  11 -25  -117.5   175.3   1
   4  11 -24    36.9   137.9   1
   4  11 -22    73.5    85.6   1
   4  11 -21  1195.5    76.0   1
   4  11 -18   -28.7    39.9   1
   4  11 -17   -18.2    32.3   1
   4  11 -16   -14.4    30.4   1
   4  11 -14   572.8    33.9   1
   4  11 -13  1628.7    55.7   1
   4  11 -11  3436.7   103.1   1
   4  11 -10  2117.1    77.1   1
   4  11  -9   197.7    25.4   1
   4  11  -7  1847.5    40.4   1
   4  11  -6  1295.7    33.5   1
   4  11  -5    85.4     8.1   1
   4  11  -3   208.9     9.8   1
   4  11  -2   129.2     7.8   1
   4  11  -1  1617.9    28.0   1
   4  11   0   295.5    10.8   1
   4  11   1    16.8     8.1   1
   4  11   2  1258.2    21.7   1
   4  11   3    50.3     9.0   1
   4  11   4   458.8    18.1   1
   4  11   5   270.9    18.4   1
   4  11   6    29.5    19.2   1
   4  11   8   358.9    21.8   1
   4  11   9   229.8    22.9   1
   4  11  10   649.6    29.2   1
   4  11  11   957.7    36.9   1
   4  11  12   215.2    29.2   1
   4  11  13   236.1    34.0   1
   4  11  14   617.4    40.5   1
   4  11  16   -76.0    52.3   1
   4  11  17   -17.5    55.0   1
   4  11  18   535.8    69.6   1
   4  11  20  -144.0    99.4   1
   4  11  21  1712.8   136.6   1
   4  11  22    71.7   163.8   1
   4  12 -25  -161.6   184.8   1
   4  12 -23   179.3   118.6   1
   4  12 -21    38.4    72.1   1
   4  12 -17  1205.2    41.4   1
   4  12 -15  2348.1    62.6   1
   4  12 -13  3946.3   104.3   1
   4  12 -11  2105.9    82.1   1
   4  12  -7   428.9    30.3   1
   4  12  -5    35.9     9.9   1
   4  12  -3  1008.5    19.5   1
   4  12  -1   412.1    11.8   1
   4  12   1    68.9    10.4   1
   4  12   3   396.7    13.5   1
   4  12   5   463.8    24.7   1
   4  12   7   206.0    22.5   1
   4  12   9   278.6    24.7   1
   4  12  11   615.1    32.2   1
   4  12  13   106.6    35.5   1
   4  12  19   286.6    87.9   1
   4  12  21   142.3   134.0   1
   4  13 -25   601.9   208.7   1
   4  13 -24    43.8   155.0   1
   4  13 -23   689.5   133.2   1
   4  13 -22  -237.0    94.4   1
   4  13 -20   -45.9    65.4   1
   4  13 -19    18.3    53.0   1
   4  13 -18   226.1    46.3   1
   4  13 -16   -28.6    31.8   1
   4  13 -13  2284.6    56.6   1
   4  13  -6  1194.7    40.0   1
   4  13  -5   250.5    15.0   1
   4  13  -4  1578.4    54.4   1
   4  13  -3    16.4    10.0   1
   4  13  -2   246.3    11.7   1
   4  13  -1   287.1    12.0   1
   4  13   0     3.2    12.6   1
   4  13   1  1835.4    31.1   1
   4  13   2   227.5    11.9   1
   4  13   3  1179.7    23.0   1
   4  13   4    16.6    14.9   1
   4  13   5   377.4    17.8   1
   4  13   6  1769.2    38.2   1
   4  13   7  1431.4    31.5   1
   4  13   8   693.2    27.2   1
   4  13   9  1313.8    36.9   1
   4  13  10   127.9    28.3   1
   4  13  11   207.1    30.5   1
   4  13  12   -53.2    30.4   1
   4  13  14     8.7    42.0   1
   4  13  16  1191.0    59.2   1
   4  13  17  -127.7    63.0   1
   4  13  18   290.6    76.3   1
   4  13  19   614.8    94.5   1
   4  13  21     8.4   140.9   1
   4  14 -23   181.5   139.5   1
   4  14 -21   390.8    84.3   1
   4  14 -19    -1.1    57.0   1
   4  14 -17   535.9    45.4   1
   4  14 -15    74.0    30.0   1
   4  14  -5    68.4    18.6   1
   4  14  -3   180.2    12.1   1
   4  14  -1  5553.9    65.2   1
   4  14   1    83.5    12.2   1
   4  14   3   928.7    21.2   1
   4  14   5   118.6    16.4   1
   4  14   7  1641.8    37.7   1
   4  14   9   204.3    25.8   1
   4  14  11   366.6    29.4   1
   4  14  13    41.6    38.0   1
   4  14  15  2401.0    64.8   1
   4  14  17  -138.7    67.3   1
   4  14  19   742.0   102.6   1
   4  14  21   842.7   159.6   1
   4  15 -24  -228.0   183.6   1
   4  15 -22  -201.7   113.5   1
   4  15 -21  -181.4    92.4   1
   4  15 -20     7.2    74.9   1
   4  15 -19   641.1    65.4   1
   4  15 -18    19.3    52.4   1
   4  15 -17   915.3    49.2   1
   4  15 -16    98.1    35.9   1
   4  15 -14   613.9    30.9   1
   4  15  -5  1297.0    32.9   1
   4  15  -3  4234.4    68.9   1
   4  15  -2   285.0    16.5   1
   4  15  -1    36.1    12.6   1
   4  15   1    -1.1    15.7   1
   4  15   2   189.3    15.5   1
   4  15   3   267.2    14.1   1
   4  15   4   724.6    22.5   1
   4  15   5   713.2    23.1   1
   4  15   6    65.5    18.0   1
   4  15   7   212.6    24.2   1
   4  15   9  1821.7    41.5   1
   4  15  10  1450.2    36.2   1
   4  15  12   174.5    34.3   1
   4  15  13   731.9    43.8   1
   4  15  14  1160.0    48.5   1
   4  15  15   420.4    66.4   1
   4  15  16    -8.5    61.3   1
   4  15  17   201.5    74.2   1
   4  15  19  1355.3   114.4   1
   4  15  20  -104.5   126.3   1
   4  15  21  -142.8   169.4   1
   4  16 -23  -237.8   159.5   1
   4  16 -21  -129.2    99.0   1
   4  16 -19    -4.8    68.8   1
   4  16 -17  2682.4    72.8   1
   4  16 -15   409.5    35.4   1
   4  16 -13   149.3    30.5   1
   4  16  -5   255.6    24.7   1
   4  16  -3   391.8    26.6   1
   4  16  -1    45.0    17.2   1
   4  16   1   539.5    25.5   1
   4  16   3   256.9    22.9   1
   4  16   5    31.9    17.3   1
   4  16   9    55.9    23.2   1
   4  16  11   729.1    34.7   1
   4  16  15    28.8    53.5   1
   4  16  19  1090.5   117.2   1
   4  17 -23  -454.8   179.1   1
   4  17 -20   398.6    90.7   1
   4  17 -19    -4.0    72.1   1
   4  17 -18  -103.9    59.8   1
   4  17 -16  1630.7    51.1   1
   4  17 -15   517.7    37.0   1
   4  17 -14  1136.0    39.1   1
   4  17 -11   -26.7    26.0   1
   4  17  -4    82.7    67.9   1
   4  17  -3   776.1    36.7   1
   4  17  -2   232.0    37.1   1
   4  17  -1    27.0    28.9   1
   4  17   1    46.3    26.4   1
   4  17   2  1553.1    48.5   1
   4  17   3   223.6    18.8   1
   4  17   4   -10.2    19.0   1
   4  17   5  1003.4    32.4   1
   4  17   6   633.1    20.8   1
   4  17   7   240.0    20.1   1
   4  17   8   988.9    32.7   1
   4  17   9    95.1    25.5   1
   4  17  10   336.1    27.4   1
   4  17  11    -1.8    30.7   1
   4  17  14   756.7    52.3   1
   4  17  15  1103.5    63.0   1
   4  17  16   102.3    69.9   1
   4  17  17   -67.8    81.6   1
   4  17  19   195.8   120.5   1
   4  17  20   522.6   157.7   1
   4  18 -21   361.9   120.2   1
   4  18 -19   150.2    77.1   1
   4  18 -17   370.8    56.2   1
   4  18 -13    -5.1    28.5   1
   4  18  -9   112.9    25.0   1
   4  18  -3  2441.5    75.4   1
   4  18  -1   299.6    45.6   1
   4  18   1    52.4    36.0   1
   4  18   3   664.7    29.3   1
   4  18   5   102.9    23.5   1
   4  18   7   161.1    19.7   1
   4  18   9  1200.5    37.0   1
   4  18  11   676.3    35.1   1
   4  18  13   -95.1    42.0   1
   4  18  15  -219.7    62.6   1
   4  18  17   159.1    90.4   1
   4  18  19  -431.3   129.5   1
   4  19 -22   967.8   175.0   1
   4  19 -21   102.4   138.0   1
   4  19 -20  -103.5   102.1   1
   4  19 -19   227.7    87.4   1
   4  19 -18    35.9    70.1   1
   4  19 -17     1.0    58.2   1
   4  19 -15    74.5    37.6   1
   4  19 -14   100.8    33.4   1
   4  19 -13   163.8    30.6   1
   4  19 -11    44.6    23.6   1
   4  19 -10   741.8    26.9   1
   4  19  -9    24.9    24.9   1
   4  19  -3   -37.5    48.8   1
   4  19  -2    63.5    62.4   1
   4  19   1  2319.5   109.4   1
   4  19   3   202.2    30.1   1
   4  19   4   932.8    39.2   1
   4  19   5    -3.5    26.9   1
   4  19   6   -14.5    23.9   1
   4  19   7   258.4    23.0   1
   4  19   8   325.4    29.4   1
   4  19   9   -65.4    25.2   1
   4  19  10   -13.3    28.2   1
   4  19  11   413.3    43.2   1
   4  19  12   673.1    42.9   1
   4  19  13  1471.2    57.1   1
   4  19  14   -97.8    53.9   1
   4  19  16   786.9    83.9   1
   4  19  17   311.9    98.2   1
   4  19  18  1617.6   121.9   1
   4  20 -21   -26.6   146.7   1
   4  20 -19  1260.3   103.7   1
   4  20 -17   590.2    58.9   1
   4  20 -15  1162.1    47.5   1
   4  20 -13   346.5    32.1   1
   4  20 -11  1724.5    39.4   1
   4  20  -9   369.4    28.0   1
   4  20   3  5207.5   149.5   1
   4  20   7    26.0    24.2   1
   4  20   9   670.8    31.7   1
   4  20  11  1441.2    47.8   1
   4  20  13   640.9    53.1   1
   4  20  15   -83.6    70.3   1
   4  20  17   431.0   110.7   1
   4  20  19   352.7   160.3   1
   4  21 -22  -401.5   195.5   1
   4  21 -20   293.4   131.5   1
   4  21 -19  -177.6    99.8   1
   4  21 -18   360.0    84.4   1
   4  21 -15   328.6    45.5   1
   4  21 -14   262.8    38.9   1
   4  21 -13   180.9    41.7   1
   4  21 -11    -5.9    26.4   1
   4  21 -10    93.2    30.5   1
   4  21   7   196.7    37.8   1
   4  21   8    93.4    27.4   1
   4  21   9     2.3    33.3   1
   4  21  10  1633.1    48.3   1
   4  21  11    -6.1    39.1   1
   4  21  12     9.5    46.6   1
   4  21  13  1231.4    63.8   1
   4  21  14   672.7    69.0   1
   4  21  15   448.2    79.8   1
   4  21  18   567.7   144.9   1
   4  22 -21   -94.3   174.6   1
   4  22 -19   296.8   113.2   1
   4  22 -17   -57.2    64.9   1
   4  22 -15   -52.4    48.2   1
   4  22 -11    -0.3    28.4   1
   4  22   7   -53.2    41.3   1
   4  22   9   406.5    36.2   1
   4  22  13   249.2    60.1   1
   4  22  17    80.2   122.2   1
   4  23 -21   946.7   200.4   1
   4  23 -20    47.4   158.1   1
   4  23 -19   175.5   129.0   1
   4  23 -17  1181.0    78.8   1
   4  23 -16    25.3    60.6   1
   4  23 -15    -6.3    51.6   1
   4  23 -14   549.3    49.3   1
   4  23 -13  1049.0    47.8   1
   4  23 -11   150.3    34.0   1
   4  23   7  1212.4    65.0   1
   4  23   9  1474.2    52.5   1
   4  23  10   -64.2    42.5   1
   4  23  11   550.3    59.6   1
   4  23  12   315.5    57.3   1
   4  23  13    36.9    65.6   1
   4  23  14   348.6    79.2   1
   4  23  15  1043.0   109.6   1
   4  23  16   -49.9   111.1   1
   4  24 -19  -298.3   144.4   1
   4  24 -17  -192.9    80.4   1
   4  24 -15   100.2    57.6   1
   4  24 -13   795.6    49.4   1
   4  24 -11   942.2    55.6   1
   4  24   7    -5.2    64.1   1
   4  24   9   942.7    81.3   1
   4  24  11   800.5    60.6   1
   4  24  13   257.2    74.1   1
   4  24  15   -68.5   102.3   1
   4  24  17   -35.6   154.4   1
   4  25 -19  1421.7   173.2   1
   4  25 -18  -162.9   135.8   1
   4  25 -17    43.6    87.9   1
   4  25 -15     2.8    65.1   1
   4  25 -14   939.0    63.7   1
   4  25 -13  1827.5    64.5   1
   4  25 -12  1077.2    54.0   1
   4  25   9  1153.6    96.0   1
   4  25  10   794.2    62.8   1
   4  25  11   605.5    65.3   1
   4  25  12   999.9    87.0   1
   4  25  13    -6.1    82.7   1
   4  25  14    58.3    99.3   1
   4  25  15     5.7   119.4   1
   4  25  16   385.8   145.3   1
   4  26 -17    57.2   104.4   1
   4  26 -15  1269.7    83.4   1
   4  26 -13   -52.6    54.8   1
   4  27 -18   -72.0   136.7   1
   4  27 -17  1559.3   128.3   1
   4  27 -15  1093.2    96.3   1
   4  27 -14   -93.0    76.4   1
   4  27 -13   478.7    72.5   1
   4  27  11   416.5    89.9   1
   4  27  12   429.9   100.6   1
   4  27  13  -306.7   112.5   1
   4  28 -17  -148.7   134.4   1
   4  28 -15   -92.7    99.9   1
   4  28 -13   -82.9    83.9   1
   4  28  13   600.2   132.2   1
   4  29 -15   164.2   117.7   1
   4  29 -14   169.1   108.1   1
   4  29  12  -221.9   131.0   1
   4  30 -15   122.6   141.5   1
   4  31 -15   971.8   180.9   1
   5   0 -16    62.5    19.8   1
   5   0   9    15.2    17.5   1
   5   0  11   -11.9    20.5   1
   5   0  13   -42.6    23.6   1
   5   0  16   945.3    44.6   1
   5   0  19   -98.8    96.3   1
   5   1 -25    28.7   143.6   1
   5   1 -24    98.5   103.2   1
   5   1 -23   -19.0    76.6   1
   5   1 -22    30.4    66.3   1
   5   1 -21   222.3    52.9   1
   5   1 -20    36.9    50.3   1
   5   1 -19   167.8    26.1   1
   5   1 -18   215.4    21.5   1
   5   1 -17    24.4    19.0   1
   5   1 -15   478.9    19.4   1
   5   1 -14    60.0    16.2   1
   5   1 -13  2408.0    44.1   1
   5   1 -12  2009.5    37.8   1
   5   1 -11    86.6    10.2   1
   5   1 -10   411.5    14.7   1
   5   1  -9   635.2    16.1   1
   5   1  -8   176.1    10.1   1
   5   1  -7   122.1     8.5   1
   5   1  -6  1101.7    34.0   1
   5   1  -1   877.2    17.0   1
   5   1   3   149.9    13.0   1
   5   1   7   139.0    15.0   1
   5   1   8    -1.7    13.4   1
   5   1   9  1448.6    30.9   1
   5   1  10   521.7    18.6   1
   5   1  11  2462.6    32.5   1
   5   1  12   331.8    17.6   1
   5   1  13  2675.3    32.9   1
   5   1  14    65.3    20.0   1
   5   1  15   -29.6    25.7   1
   5   1  16   709.6    32.3   1
   5   1  17     0.7    35.5   1
   5   1  18    31.6    50.0   1
   5   1  19   300.7    58.7   1
   5   1  20    60.2    88.1   1
   5   1  21  -227.1   120.2   1
   5   1  22   450.6   186.7   1
   5   2 -24  1465.1    94.8   1
   5   2 -23   207.3    63.1   1
   5   2 -22    30.8    47.9   1
   5   2 -21   136.9    35.8   1
   5   2 -20   305.6    30.2   1
   5   2 -19   306.8    25.5   1
   5   2 -18   210.6    22.0   1
   5   2 -17   180.7    18.7   1
   5   2 -16  1153.1    28.7   1
   5   2 -15   737.9    27.2   1
   5   2 -14    63.6    17.4   1
   5   2 -13    45.6    15.1   1
   5   2 -12  1000.4    26.1   1
   5   2 -11    24.7    10.1   1
   5   2 -10  1001.1    27.0   1
   5   2  -9   562.4    19.0   1
   5   2  -8  3089.1    49.3   1
   5   2  -7  3582.6    56.2   1
   5   2  -5     4.1    12.2   1
   5   2  -3  3047.1    65.1   1
   5   2  -2    91.2     7.0   1
   5   2   0   293.1    12.2   1
   5   2   1  3196.5    45.7   1
   5   2   2  1245.9    54.1   1
   5   2   7  1473.0    27.5   1
   5   2   8   406.7    17.9   1
   5   2   9  2811.7    34.2   1
   5   2  10  1169.7    27.7   1
   5   2  11   269.3    15.5   1
   5   2  12   323.3    18.9   1
   5   2  13   123.4    18.6   1
   5   2  14   -16.3    21.9   1
   5   2  15   164.3    26.7   1
   5   2  16    -8.0    32.3   1
   5   2  17   -54.4    44.3   1
   5   2  18   -27.1    59.3   1
   5   2  19    56.0    80.0   1
   5   2  20    36.5   105.8   1
   5   2  21   191.6   141.4   1
   5   3 -25   531.5   104.3   1
   5   3 -24    94.4    79.1   1
   5   3 -23   235.2    61.3   1
   5   3 -22   338.7    49.2   1
   5   3 -21   305.8    41.5   1
   5   3 -19    36.0    25.2   1
   5   3 -18   374.6    24.0   1
   5   3 -17   478.2    21.9   1
   5   3 -16    23.9    18.4   1
   5   3 -15  6271.5    93.8   1
   5   3 -14    48.1    18.4   1
   5   3 -13  1912.0    43.7   1
   5   3 -12  1247.3    25.2   1
   5   3 -11   128.5    12.0   1
   5   3 -10   121.5    19.4   1
   5   3  -9    62.6    10.3   1
   5   3  -8   350.2    11.7   1
   5   3  -7    41.7     7.7   1
   5   3  -6   801.9    20.7   1
   5   3  -3   176.5     7.4   1
   5   3   0   920.5    26.5   1
   5   3   2  5928.2   152.9   1
   5   3   7    23.1    15.1   1
   5   3   8    -0.4    13.6   1
   5   3   9  3210.9    39.7   1
   5   3  10    56.6    17.3   1
   5   3  11    24.5    17.6   1
   5   3  12  1969.8    38.9   1
   5   3  13     2.7    19.1   1
   5   3  14    54.5    23.3   1
   5   3  15  1346.7    35.6   1
   5   3  16   375.3    39.2   1
   5   3  17   287.4    47.4   1
   5   3  18   312.7    63.0   1
   5   3  19  1717.5    96.1   1
   5   3  20  -127.4   109.2   1
   5   3  21   246.5   152.0   1
   5   4 -26   114.7   128.6   1
   5   4 -25    -2.5   101.8   1
   5   4 -24   -76.2    77.1   1
   5   4 -23   136.7    63.7   1
   5   4 -22   372.2    51.0   1
   5   4 -21   359.2    41.1   1
   5   4 -20  1518.8    46.0   1
   5   4 -19  1518.4    39.5   1
   5   4 -18    92.1    23.3   1
   5   4 -17    11.8    20.6   1
   5   4 -16  1686.3    35.2   1
   5   4 -13   405.3    21.9   1
   5   4 -12    10.8    15.5   1
   5   4 -11  2436.4    49.5   1
   5   4 -10  1550.7    34.6   1
   5   4  -9   348.7    14.3   1
   5   4  -8  1032.2    20.0   1
   5   4  -7   266.2    11.0   1
   5   4  -6    62.8     7.0   1
   5   4  -3    95.5     7.4   1
   5   4  -1   440.3    21.8   1
   5   4   1   759.8    22.6   1
   5   4   3   319.7    12.6   1
   5   4   7  3676.2    60.5   1
   5   4   8   -24.4    13.2   1
   5   4   9    28.2    16.1   1
   5   4  10   855.3    28.8   1
   5   4  11   447.5    21.0   1
   5   4  12  1012.8    29.7   1
   5   4  13     5.6    23.9   1
   5   4  14   -11.7    26.6   1
   5   4  15   -53.6    35.2   1
   5   4  16   -13.0    39.4   1
   5   4  17  2041.6    64.7   1
   5   4  18   412.8    68.6   1
   5   4  19   -76.7    89.4   1
   5   4  20   253.4   118.1   1
   5   4  21  1019.9   161.8   1
   5   5 -17   542.8    24.9   1
   5   5 -13    51.8    31.6   1
   5   5 -12   670.9    25.7   1
   5   5 -11   242.0    16.2   1
   5   5  -9    18.0     8.7   1
   5   5  -8    52.5     8.7   1
   5   5  -7   261.2    11.8   1
   5   5  -6    23.7     7.6   1
   5   5  -4    20.4     9.5   1
   5   5   1  2756.5    70.3   1
   5   5   4   786.2    21.9   1
   5   5   6   422.3    19.9   1
   5   5   7   834.7    22.2   1
   5   5   8   166.2    15.2   1
   5   5   9   730.9    25.5   1
   5   5  11  1206.9    43.8   1
   5   5  12   205.4    38.5   1
   5   5  13   113.6    29.1   1
   5   5  14   497.1    51.5   1
   5   6 -25    55.5   103.4   1
   5   6 -24     3.9    79.7   1
   5   6 -23   362.8    64.0   1
   5   6 -22   -67.3    50.2   1
   5   6 -21    82.0    44.0   1
   5   6 -20    48.5    34.4   1
   5   6 -19   272.7    30.5   1
   5   6 -18    -6.1    25.8   1
   5   6 -17   226.9    24.1   1
   5   6 -16    22.1    27.0   1
   5   6 -13   309.2    26.4   1
   5   6 -12   278.3    22.7   1
   5   6 -11  1754.0    45.0   1
   5   6  -9    23.6     9.7   1
   5   6  -8   315.0    12.2   1
   5   6  -7   755.0    16.4   1
   5   6  -6   216.4     9.3   1
   5   6  -4  2056.4    54.6   1
   5   6  -3  4555.0    60.7   1
   5   6  -2    36.3     9.8   1
   5   6  -1    15.6     6.9   1
   5   6   2   956.0    21.8   1
   5   6   6   433.1    19.0   1
   5   6   7   469.1    17.0   1
   5   6   8   669.2    20.8   1
   5   6   9  3680.1    67.4   1
   5   6  11   -50.2    31.3   1
   5   6  12   -56.4    25.5   1
   5   6  13   651.1    30.7   1
   5   6  14    72.0    32.2   1
   5   6  15     1.8    37.9   1
   5   6  16   410.8    57.0   1
   5   6  17   287.5    58.2   1
   5   6  18    15.8    73.8   1
   5   6  19   -57.5    94.2   1
   5   6  21  -164.2   157.3   1
   5   7 -25    38.2   107.2   1
   5   7 -24   174.4    83.6   1
   5   7 -23  -107.9    63.1   1
   5   7 -22   165.8    57.3   1
   5   7 -21   476.7    46.1   1
   5   7 -20    89.5    35.8   1
   5   7 -19   -10.7    30.9   1
   5   7 -18   165.5    27.8   1
   5   7 -17   116.5    28.3   1
   5   7 -16   530.4    33.4   1
   5   7 -12   728.7    34.6   1
   5   7 -11  1033.6    32.6   1
   5   7 -10    86.3    14.7   1
   5   7  -9   241.5    12.8   1
   5   7  -8  2306.2    34.9   1
   5   7  -7  1244.1    22.5   1
   5   7  -6    93.1     7.2   1
   5   7  -5   546.2    13.5   1
   5   7  -4    42.3     9.2   1
   5   7  -3   229.8     8.0   1
   5   7  -2  5250.1    71.3   1
   5   7  -1   263.0    12.4   1
   5   7   1   182.2    13.9   1
   5   7   3   409.3    12.8   1
   5   7   4  2533.5    53.2   1
   5   7   5   188.1    16.5   1
   5   7   6   578.7    20.9   1
   5   7   7    76.1    17.5   1
   5   7   8    37.3    15.8   1
   5   7   9   506.1    25.7   1
   5   7  11    64.9    26.0   1
   5   7  12   193.7    27.7   1
   5   7  13   119.8    29.7   1
   5   7  14   433.3    36.4   1
   5   7  15   199.4    41.3   1
   5   7  16   -45.5    50.9   1
   5   7  17   -76.2    59.1   1
   5   7  18   -29.2    76.3   1
   5   7  19   898.5   101.7   1
   5   7  20  -436.6   127.0   1
   5   7  21  -377.0   163.4   1
   5   8 -24   -88.2    83.1   1
   5   8 -23  1032.5    78.7   1
   5   8 -22    -8.6    54.3   1
   5   8 -21   983.6    52.2   1
   5   8 -20   405.4    40.5   1
   5   8 -19  3072.1    58.6   1
   5   8 -18   240.3    34.2   1
   5   8 -17   208.2    30.3   1
   5   8 -16   -37.4    31.3   1
   5   8 -13  1063.1    38.9   1
   5   8 -12  3887.2    87.4   1
   5   8 -11   -12.6    25.5   1
   5   8 -10   216.8    18.2   1
   5   8  -9    45.6    13.0   1
   5   8  -8   535.1    18.1   1
   5   8  -7   130.9     9.4   1
   5   8  -6   493.4    11.9   1
   5   8  -5   184.8     8.4   1
   5   8  -4     3.3     7.1   1
   5   8  -3   387.3    10.7   1
   5   8  -2   916.3    22.3   1
   5   8  -1   138.1     9.7   1
   5   8   0     7.5     8.8   1
   5   8   1    55.8     9.8   1
   5   8   2    71.3    10.5   1
   5   8   3   653.0    15.5   1
   5   8   4    70.2    13.4   1
   5   8   5   446.8    20.1   1
   5   8   6   200.9    18.3   1
   5   8   7   876.4    29.6   1
   5   8   8  1532.6    32.5   1
   5   8   9   210.7    21.6   1
   5   8  10   136.1    28.9   1
   5   8  11    17.8    26.3   1
   5   8  12   -38.2    30.7   1
   5   8  13    -5.8    31.4   1
   5   8  14    -4.4    35.1   1
   5   8  15    70.4    41.9   1
   5   8  16  -121.1    52.3   1
   5   8  17   -72.1    61.6   1
   5   8  18   106.3    78.3   1
   5   8  19  -186.0    98.6   1
   5   8  21  -421.8   166.4   1
   5   9 -25   137.2   153.5   1
   5   9 -24  -162.4    87.5   1
   5   9 -23   122.5    70.6   1
   5   9 -22    44.4    58.1   1
   5   9 -21   598.6    51.5   1
   5   9 -19   388.4    36.3   1
   5   9 -18   917.3    36.9   1
   5   9 -17  1579.4    45.7   1
   5   9 -16  2858.1    60.4   1
   5   9 -13   166.0    32.0   1
   5   9 -12  3929.8    84.9   1
   5   9 -11   161.7    29.1   1
   5   9  -9   199.7    15.9   1
   5   9  -8   285.9    14.1   1
   5   9  -7   500.9    17.4   1
   5   9  -6   629.1    12.8   1
   5   9  -4   836.0    21.1   1
   5   9  -3   139.4     9.9   1
   5   9  -2    97.4    10.5   1
   5   9   1   222.7    11.1   1
   5   9   2   161.6     9.9   1
   5   9   3    -0.4     9.9   1
   5   9   4     9.3    12.7   1
   5   9   6   143.9    17.0   1
   5   9   7   418.3    21.8   1
   5   9   8   -15.3    22.1   1
   5   9   9    55.0    22.8   1
   5   9  10  2010.1    58.9   1
   5   9  11   161.1    28.4   1
   5   9  12   159.2    30.2   1
   5   9  13   751.6    38.0   1
   5   9  14   381.8    54.1   1
   5   9  15   220.3    50.1   1
   5   9  16   583.4    59.2   1
   5   9  17   -18.6    64.8   1
   5   9  18    15.3    80.0   1
   5   9  19    51.3   102.7   1
   5   9  21  -507.3   172.0   1
   5  10 -17   422.5    36.6   1
   5  10 -16    -6.6    29.8   1
   5  10 -12   535.1    33.1   1
   5  10 -11     2.2    25.7   1
   5  10  -9   118.8    15.0   1
   5  10  -8   239.0    15.9   1
   5  10  -7  2110.3    34.0   1
   5  10  -6  2277.2    33.9   1
   5  10  -4  1405.8    26.0   1
   5  10  -3    29.1     9.5   1
   5  10  -2  1184.7    20.3   1
   5  10  -1  1132.8    24.3   1
   5  10   1   199.7    11.7   1
   5  10   2    -4.1    11.3   1
   5  10   3   525.3    15.6   1
   5  10   4    14.1    14.7   1
   5  10   6   316.5    20.9   1
   5  10   7   198.6    27.3   1
   5  10   8   456.8    26.8   1
   5  10   9    19.5    25.1   1
   5  10  11    98.6    33.3   1
   5  10  12   133.2    31.3   1
   5  11 -25     9.9   171.1   1
   5  11 -23    92.0    99.2   1
   5  11 -22  -136.8    65.5   1
   5  11 -20   513.0    49.2   1
   5  11 -19   126.2    38.9   1
   5  11 -18   -56.0    41.7   1
   5  11 -17    10.6    36.0   1
   5  11 -12   211.6    35.5   1
   5  11  -9  1514.8    33.8   1
   5  11  -8   855.4    22.1   1
   5  11  -7   208.2    14.0   1
   5  11  -6   362.7    16.6   1
   5  11  -4   986.5    19.4   1
   5  11  -3   214.9    11.1   1
   5  11  -2    44.6    10.1   1
   5  11  -1   556.2    17.8   1
   5  11   1    18.5     7.9   1
   5  11   2   434.5    15.4   1
   5  11   3   629.9    15.9   1
   5  11   4   716.6    21.8   1
   5  11   5    71.1    16.6   1
   5  11   6   764.0    28.3   1
   5  11   7     4.0    20.0   1
   5  11   8  3381.7    62.1   1
   5  11   9    25.0    24.2   1
   5  11  10   473.2    31.5   1
   5  11  11   848.0    35.4   1
   5  11  12   762.6    37.8   1
   5  11  13  1123.2    44.0   1
   5  11  14    68.4    42.7   1
   5  11  15   -22.8    63.9   1
   5  11  16    51.1    75.1   1
   5  11  18    24.4    92.4   1
   5  11  19   234.9   113.5   1
   5  11  20   298.9   149.3   1
   5  12 -24  -179.4   142.7   1
   5  12 -23   584.6   108.7   1
   5  12 -21   631.7    63.0   1
   5  12 -20  1518.5    59.3   1
   5  12 -19  1126.8    48.4   1
   5  12 -18   111.8    38.5   1
   5  12 -11   165.4    33.2   1
   5  12  -9   168.4    23.5   1
   5  12  -8  1596.4    41.8   1
   5  12  -7     1.2    15.4   1
   5  12  -6   433.4    18.6   1
   5  12  -4   574.3    20.7   1
   5  12  -3    27.5    10.7   1
   5  12  -2    55.4    10.5   1
   5  12  -1    15.3     7.7   1
   5  12   1    25.4     8.7   1
   5  12   2   722.0    19.8   1
   5  12   3    30.3    12.4   1
   5  12   4   794.9    26.0   1
   5  12   6   160.1    18.6   1
   5  12   7  1452.4    45.7   1
   5  12   8   134.6    23.1   1
   5  12   9    49.4    26.5   1
   5  12  10   -20.8    26.9   1
   5  12  11   252.1    30.2   1
   5  12  12   551.6    40.6   1
   5  12  13  1330.8    47.1   1
   5  12  14   417.5    46.3   1
   5  12  16  1058.2    70.4   1
   5  12  18   273.1    97.8   1
   5  12  19  -459.2   122.8   1
   5  12  20   558.7   161.6   1
   5  13 -24    51.5   154.5   1
   5  13 -22   117.2    76.0   1
   5  13 -21   743.6    67.0   1
   5  13 -20   261.7    54.8   1
   5  13 -19   -11.7    45.6   1
   5  13 -17     5.2    41.0   1
   5  13 -16   145.7    38.4   1
   5  13 -12   724.0    47.7   1
   5  13 -11  4603.4    98.7   1
   5  13  -9    15.6    28.9   1
   5  13  -8   646.5    30.8   1
   5  13  -7   305.3    20.7   1
   5  13  -6   702.9    22.1   1
   5  13  -4    17.2    14.1   1
   5  13  -2   122.6    10.7   1
   5  13  -1  1229.6    23.2   1
   5  13   0   165.3    16.3   1
   5  13   1   116.3    11.8   1
   5  13   2    64.2    10.3   1
   5  13   3  2531.1    51.8   1
   5  13   4  1377.6    30.0   1
   5  13   5    66.0    18.0   1
   5  13   6   147.3    20.3   1
   5  13   7   181.1    21.6   1
   5  13   8    86.3    24.7   1
   5  13   9     7.0    24.2   1
   5  13  10   521.8    28.8   1
   5  13  11   -37.7    31.2   1
   5  13  12  1047.9    41.8   1
   5  13  13   -17.0    41.1   1
   5  13  14   571.4    50.3   1
   5  13  15   725.5    62.4   1
   5  13  16  -224.3    70.9   1
   5  13  17   277.7    84.7   1
   5  13  18   -95.6   107.0   1
   5  13  19  -267.7   130.8   1
   5  13  20  1633.8   180.9   1
   5  14 -23   307.0   124.6   1
   5  14 -22   507.1   105.3   1
   5  14 -21   -81.0    68.6   1
   5  14 -20   196.9    57.7   1
   5  14 -18   779.2    45.1   1
   5  14 -17    35.8    44.3   1
   5  14 -16   -63.7    38.0   1
   5  14  -8  3526.1    78.8   1
   5  14  -7   166.3    24.6   1
   5  14  -6   162.0    16.2   1
   5  14  -4   282.0    17.2   1
   5  14  -3   466.7    16.8   1
   5  14  -2    10.2    11.9   1
   5  14  -1    70.9    14.4   1
   5  14   0   497.6    20.9   1
   5  14   1    11.1    11.2   1
   5  14   2   289.3    14.2   1
   5  14   3   140.8    12.3   1
   5  14   4   169.9    18.2   1
   5  14   6   -11.4    19.3   1
   5  14   7  2564.0    59.7   1
   5  14   8   476.9    24.9   1
   5  14   9    34.4    24.9   1
   5  14  10    50.6    33.7   1
   5  14  11   168.9    32.5   1
   5  14  12   481.1    38.4   1
   5  14  13  1274.8    49.9   1
   5  14  16    86.8    75.3   1
   5  14  17  -157.9    90.2   1
   5  14  20   -33.2   183.8   1
   5  15 -24    79.1   173.1   1
   5  15 -18   -53.5    45.2   1
   5  15 -17  -160.8    39.6   1
   5  15 -14    -2.8    33.3   1
   5  15  -7   275.0    24.7   1
   5  15  -6    69.7    20.9   1
   5  15  -4    -2.7    17.9   1
   5  15  -3   707.7    29.1   1
   5  15  -2  3214.2    54.8   1
   5  15  -1   -26.7    19.8   1
   5  15   1   210.9    14.0   1
   5  15   2  3660.2    71.3   1
   5  15   3  1487.2    36.9   1
   5  15   4  2237.9    48.9   1
   5  15   6   -21.7    17.5   1
   5  15   7   325.3    22.0   1
   5  15   8    44.9    23.5   1
   5  15   9  1573.3    45.4   1
   5  15  12    77.5    38.9   1
   5  15  14   326.2    66.8   1
   5  15  16   223.1    79.7   1
   5  15  17    22.1    99.8   1
   5  15  18   978.1   125.3   1
   5  16 -24  -120.6   184.5   1
   5  16 -23   647.2   155.8   1
   5  16 -22   439.3   114.4   1
   5  16 -20    54.3    65.8   1
   5  16 -19   421.4    57.4   1
   5  16 -18   960.7    52.9   1
   5  16 -17   656.9    44.6   1
   5  16 -14   795.0    39.6   1
   5  16 -13   -11.8    32.0   1
   5  16 -12    50.9    28.3   1
   5  16  -9   715.6    35.8   1
   5  16  -8  3019.2    65.9   1
   5  16  -6   315.8    27.1   1
   5  16  -4   -32.4    23.1   1
   5  16  -3    37.3    24.3   1
   5  16  -2   117.7    21.3   1
   5  16  -1   620.3    33.4   1
   5  16   1   503.6    20.7   1
   5  16   2    84.3    15.5   1
   5  16   3    15.4    16.2   1
   5  16   4   938.2    25.2   1
   5  16   5    11.8    17.4   1
   5  16   6    43.6    22.0   1
   5  16   7   303.2    22.2   1
   5  16   8   838.2    29.3   1
   5  16   9   956.6    33.2   1
   5  16  12   519.7    43.6   1
   5  16  13   152.3    48.1   1
   5  16  14  3013.4    84.6   1
   5  16  15    69.8    71.0   1
   5  16  17   677.0   108.1   1
   5  16  18   634.1   129.5   1
   5  16  19  -115.6   162.4   1
   5  17 -23  -261.3   164.8   1
   5  17 -21   330.7    87.2   1
   5  17 -20   751.5    75.9   1
   5  17 -19   -46.6    60.6   1
   5  17 -18  1208.5    60.1   1
   5  17 -16   318.4    47.5   1
   5  17 -14   -17.2    35.1   1
   5  17 -13    50.5    33.6   1
   5  17 -12    -1.8    30.8   1
   5  17  -9   915.4    42.2   1
   5  17  -8   543.8    35.4   1
   5  17  -4    48.9    29.6   1
   5  17  -3    76.4    29.4   1
   5  17  -2    28.7    37.5   1
   5  17  -1    12.9    28.0   1
   5  17   1   541.7    38.6   1
   5  17   2   651.8    33.9   1
   5  17   4    87.2    17.3   1
   5  17   5   139.0    23.8   1
   5  17   6   202.1    19.7   1
   5  17   7     3.3    25.2   1
   5  17   8   126.3    24.8   1
   5  17   9   323.5    28.8   1
   5  17  11   -39.9    55.8   1
   5  17  12    -6.0    47.7   1
   5  17  13    47.2    51.1   1
   5  17  14   309.8    64.3   1
   5  17  15  1293.2    82.2   1
   5  17  16   224.1    92.7   1
   5  18 -22    -2.0   143.2   1
   5  18 -21   570.9    97.3   1
   5  18 -20  -253.6    78.7   1
   5  18 -19    -9.3    66.4   1
   5  18 -17    43.0    46.7   1
   5  18 -16  2256.6    57.4   1
   5  18 -14  1606.2    50.9   1
   5  18 -13   -31.5    32.8   1
   5  18 -12  2157.8    54.5   1
   5  18 -11   412.1    31.0   1
   5  18  -9    45.4    25.5   1
   5  18  -4   169.3    39.5   1
   5  18  -3   688.1    51.3   1
   5  18  -2  3510.5   120.0   1
   5  18  -1   194.0    33.6   1
   5  18   1   580.9    54.6   1
   5  18   2  4233.7   110.4   1
   5  18   4  2206.3    65.2   1
   5  18   5    34.8    20.4   1
   5  18   6   128.5    20.7   1
   5  18   7   292.4    24.2   1
   5  18   8   242.4    29.4   1
   5  18   9   -61.3    28.6   1
   5  18  10    12.5    32.7   1
   5  18  11    17.2    38.8   1
   5  18  12   -36.9    48.0   1
   5  18  13    88.5    55.7   1
   5  18  14  -157.5    68.3   1
   5  18  17    -5.3   118.8   1
   5  19 -22   -19.1   157.8   1
   5  19 -21  2960.5   123.2   1
   5  19 -20   542.2    87.1   1
   5  19 -18   -42.8    60.3   1
   5  19 -17   328.4    51.9   1
   5  19 -16   366.1    44.1   1
   5  19 -14   -76.7    40.0   1
   5  19 -13   -64.7    34.7   1
   5  19 -12   -35.7    32.0   1
   5  19 -11   115.5    29.8   1
   5  19  -9  1609.5    42.6   1
   5  19  -3   432.5    69.2   1
   5  19  -2   316.2    82.3   1
   5  19  -1   266.4    51.2   1
   5  19   6  1315.4    39.1   1
   5  19   7   -27.7    24.0   1
   5  19   8   869.4    33.4   1
   5  19  11   -42.4    43.4   1
   5  19  12   -92.0    50.4   1
   5  19  13     0.7    61.7   1
   5  19  15   486.5    91.4   1
   5  19  16   -61.3   110.2   1
   5  19  17   -87.4   110.2   1
   5  20 -22  -594.1   177.1   1
   5  20 -19   305.7    78.6   1
   5  20 -18   -42.4    64.5   1
   5  20 -17   288.2    55.5   1
   5  20 -16   -17.6    46.4   1
   5  20 -14   815.5    48.9   1
   5  20 -13   508.1    41.7   1
   5  20 -12   -20.4    34.0   1
   5  20 -11   949.5    38.7   1
   5  20  -4   988.3    80.8   1
   5  20  -1   131.7    75.8   1
   5  20   1  1096.0   114.5   1
   5  20   6    17.8    29.0   1
   5  20   7  1296.0    40.9   1
   5  20   8   -11.3    31.2   1
   5  20   9   648.7    42.4   1
   5  20  11   506.9    50.1   1
   5  20  12   333.2    58.8   1
   5  20  16    11.4   107.3   1
   5  20  18   942.5   157.5   1
   5  21 -21   -93.7   122.7   1
   5  21 -19   843.4    87.4   1
   5  21 -17  -108.0    59.7   1
   5  21 -16   349.9    50.5   1
   5  21 -14   868.9    54.1   1
   5  21 -13    36.6    42.9   1
   5  21 -12   196.5    39.0   1
   5  21 -11   254.5    37.4   1
   5  21   1  1856.5   221.6   1
   5  21   7    31.4    32.2   1
   5  21   8   -47.7    31.0   1
   5  21   9   491.0    37.7   1
   5  21  11   550.2    54.9   1
   5  21  12   499.1    54.4   1
   5  21  13   553.9    77.7   1
   5  21  14  3030.8   103.0   1
   5  21  15  4569.9   132.3   1
   5  21  16  1083.3   132.1   1
   5  21  17  -210.9   132.3   1
   5  21  18  -395.2   169.1   1
   5  22 -21   -87.2   140.0   1
   5  22 -19   377.2    89.7   1
   5  22 -18   307.1    77.9   1
   5  22 -16    10.9    54.6   1
   5  22 -14   -38.1    41.3   1
   5  22 -13    49.9    46.4   1
   5  22 -12   -42.4    42.3   1
   5  22   8    84.3    38.5   1
   5  22   9    96.1    38.1   1
   5  22  10   159.6    43.3   1
   5  22  12    34.6    70.0   1
   5  22  13    41.2    70.2   1
   5  22  16  -293.4   117.9   1
   5  23 -21   438.7   153.2   1
   5  23 -18     2.9    82.0   1
   5  23 -17   423.6    72.1   1
   5  23 -16     9.4    60.2   1
   5  23 -14  2401.1    67.6   1
   5  23 -13   356.7    41.6   1
   5  23   9    42.6    43.5   1
   5  23  10   -47.7    53.2   1
   5  23  11  1415.3    67.9   1
   5  23  12    56.4    66.2   1
   5  23  13   554.0    82.0   1
   5  23  15   105.7   108.4   1
   5  23  16   473.2   139.7   1
   5  23  17  -207.7   167.1   1
   5  24 -20  1195.4   148.0   1
   5  24 -19    97.8   115.6   1
   5  24 -18  -157.8    92.1   1
   5  24 -17  -127.4    76.4   1
   5  24 -16   296.5    67.5   1
   5  24 -15   485.1    59.9   1
   5  24 -14   607.2    51.9   1
   5  24  10  1298.5    64.6   1
   5  24  11   -79.2    61.9   1
   5  24  12   107.5    72.9   1
   5  24  13  -124.6    82.9   1
   5  24  15   879.5   131.8   1
   5  24  16  1244.6   161.6   1
   5  25 -19  -254.5   131.3   1
   5  25 -18  1587.3   116.0   1
   5  25 -17   701.2    89.1   1
   5  25 -16   343.2    74.1   1
   5  25 -14    18.4    56.6   1
   5  25 -13  1715.2    66.5   1
   5  25   9   120.6    67.9   1
   5  25  11    46.8    72.1   1
   5  25  12   311.4    84.2   1
   5  25  13   339.0   101.7   1
   5  26 -19   824.5   149.7   1
   5  26 -18  1803.8   134.8   1
   5  26 -17  -114.8   102.7   1
   5  26 -16  1541.8    97.7   1
   5  26 -15   255.4    73.5   1
   5  26 -14   -41.5    64.2   1
   5  26 -13   658.6    63.9   1
   5  26  10   196.7    76.3   1
   5  26  11   113.5    86.4   1
   5  26  12   -56.5    98.6   1
   5  26  14    14.5   132.6   1
   5  26  15   -97.1   158.1   1
   5  27 -18   952.2   141.4   1
   5  27 -16  1083.1   109.4   1
   5  27 -14   -52.2    74.0   1
   5  27 -13   -56.7    66.4   1
   5  27  11   176.9   100.2   1
   5  28 -17   -42.5   132.0   1
   5  28 -16  1246.3   124.5   1
   5  28 -14   410.9    91.3   1
   5  28  11   125.7   117.4   1
   5  28  12   631.0   134.5   1
   5  29 -16  -102.2   131.2   1
   5  29 -14     4.7   105.6   1
   5  30 -16    46.6   154.7   1
   6   0  11   -21.9    21.4   1
   6   0  13    -6.9    24.5   1
   6   1 -26    57.8   290.1   1
   6   1 -25    12.0   206.2   1
   6   1 -24   329.8   144.4   1
   6   1 -23   -17.9    97.0   1
   6   1 -22   -51.0    51.1   1
   6   1 -21    62.7    42.3   1
   6   1 -20    88.9    35.7   1
   6   1 -19   490.5    39.2   1
   6   1 -18     1.0    24.6   1
   6   1 -17    -4.0    21.2   1
   6   1 -16  1530.5    34.6   1
   6   1 -15  1195.5    27.5   1
   6   1 -14    61.0    14.5   1
   6   1 -13    22.5    14.0   1
   6   1 -12   443.8    17.6   1
   6   1 -11   153.2    11.1   1
   6   1 -10  1213.2    21.3   1
   6   1  -9   332.8    13.3   1
   6   1  -8  2784.8    53.6   1
   6   1  -7    42.4     9.3   1
   6   1   2    27.0     9.3   1
   6   1   3   332.5    16.0   1
   6   1   7  3617.9    81.3   1
   6   1   8  2537.5    34.6   1
   6   1   9   264.7    16.7   1
   6   1  10   496.5    19.4   1
   6   1  11  1019.0    26.6   1
   6   1  12   611.7    22.3   1
   6   1  13    72.6    19.7   1
   6   1  14    -1.2    20.9   1
   6   1  15   338.2    26.8   1
   6   1  16   134.0    32.8   1
   6   1  17    24.1    38.5   1
   6   1  18   913.9    57.0   1
   6   1  19    53.1    69.8   1
   6   1  20   168.2    90.4   1
   6   1  21   623.2   120.6   1
   6   1  22    43.6   161.9   1
   6   2 -25   623.7   105.6   1
   6   2 -23   948.7    66.8   1
   6   2 -21   132.6    39.0   1
   6   2 -19   184.2    26.5   1
   6   2 -17   887.1    26.1   1
   6   2 -15   777.5    23.6   1
   6   2 -13   680.3    21.4   1
   6   2 -11  3161.2    44.1   1
   6   2  -9  1047.0    19.8   1
   6   2  -7   108.1    12.9   1
   6   2  -5   254.0     9.6   1
   6   2  -3    42.0     6.8   1
   6   2  -1  2081.6    28.4   1
   6   2   1    54.5     8.3   1
   6   2   7  2841.9    40.3   1
   6   2   9  3389.9    41.0   1
   6   2  11    68.4    17.0   1
   6   2  13     2.8    20.1   1
   6   2  15    13.9    29.6   1
   6   2  17   368.2    48.6   1
   6   2  19   719.3    81.5   1
   6   2  21   152.1   131.2   1
   6   3 -26   -38.9   128.7   1
   6   3 -25    53.3   100.9   1
   6   3 -23   464.9    60.5   1
   6   3 -22   836.5    53.4   1
   6   3 -20    47.8    31.8   1
   6   3 -19    22.6    29.7   1
   6   3 -17   236.3    23.8   1
   6   3 -16  5133.9    76.1   1
   6   3 -14   123.5    18.8   1
   6   3 -13  1101.8    25.8   1
   6   3 -11  1101.8    21.8   1
   6   3 -10    85.2    11.1   1
   6   3  -8     5.3    11.7   1
   6   3  -7    38.4    10.2   1
   6   3  -5  1224.8    20.6   1
   6   3  -4  1884.3    50.7   1
   6   3  -1  3113.5    45.9   1
   6   3   1  1126.9    18.9   1
   6   3   2   283.0    11.5   1
   6   3   4    49.6    18.7   1
   6   3   7   623.7    20.6   1
   6   3   8  4261.8    47.5   1
   6   3  10     8.6    16.9   1
   6   3  11   103.0    19.1   1
   6   3  13   455.3    27.2   1
   6   3  14    82.8    26.2   1
   6   3  16   -17.6    42.5   1
   6   3  17   541.6    55.8   1
   6   3  19  -226.9    79.2   1
   6   3  20  -178.8   129.3   1
   6   4 -25    49.7   102.7   1
   6   4 -23    19.4    58.7   1
   6   4 -21   -24.6    38.3   1
   6   4 -19  1165.7    41.4   1
   6   4 -17    43.3    24.2   1
   6   4 -15   152.1    22.9   1
   6   4 -13   317.5    18.9   1
   6   4 -11   734.9    17.9   1
   6   4  -9    50.3     8.8   1
   6   4  -7    52.5    10.6   1
   6   4  -5  1232.4    22.3   1
   6   4  -3  2859.9    55.9   1
   6   4  -1   407.7    14.5   1
   6   4   1    71.9     9.5   1
   6   4   9  2966.9    43.0   1
   6   4  11  3128.0    42.8   1
   6   4  13   595.9    29.6   1
   6   4  15   -40.4    35.6   1
   6   4  17   976.7    54.8   1
   6   4  19  -265.6   100.8   1
   6   4  21  -219.6   180.6   1
   6   5 -26   -94.0   126.4   1
   6   5 -25  -224.2    98.9   1
   6   5 -22   237.0    48.9   1
   6   5 -21    -5.5    40.0   1
   6   5 -20   323.8    34.1   1
   6   5 -19    38.8    33.0   1
   6   5 -18  1481.6    43.3   1
   6   5 -16   506.4    27.4   1
   6   5 -15    94.9    24.3   1
   6   5 -14  4530.3    77.0   1
   6   5 -13    -9.9    18.3   1
   6   5 -11    78.6    13.6   1
   6   5 -10   241.2    13.4   1
   6   5  -9   823.6    16.1   1
   6   5  -8   242.3    11.7   1
   6   5  -7    24.4     9.7   1
   6   5  -5    48.1     8.4   1
   6   5  -4  1974.3    33.4   1
   6   5  -3  4076.3    73.4   1
   6   5  -2  1141.0    21.9   1
   6   5  -1   391.0    14.9   1
   6   5   1    20.6     9.2   1
   6   5   2    87.5    12.7   1
   6   5   7   949.7    27.6   1
   6   5   8  2552.7    41.1   1
   6   5   9   213.2    18.6   1
   6   5  10   202.1    22.4   1
   6   5  11  3418.5    62.5   1
   6   5  12   824.2    32.1   1
   6   5  13   316.8    29.4   1
   6   5  14    38.6    32.5   1
   6   5  15     3.4    36.8   1
   6   5  16   148.5    44.5   1
   6   5  17   580.2    68.1   1
   6   5  18   111.6    85.0   1
   6   5  19    65.4   106.4   1
   6   5  20  -243.6   138.0   1
   6   5  21   -76.5   187.4   1
   6   6 -13   599.5    26.8   1
   6   6 -11   544.4    20.5   1
   6   6  -7  1232.3    25.3   1
   6   6  -5  3265.4    54.4   1
   6   6  -1  3822.5    55.6   1
   6   6   7  1151.1    26.6   1
   6   7 -26  -171.4   130.3   1
   6   7 -25  1427.7   114.8   1
   6   7 -24    64.6    76.6   1
   6   7 -23   101.7    65.3   1
   6   7 -22   904.4    57.2   1
   6   7 -21   612.4    47.3   1
   6   7 -20   111.8    42.2   1
   6   7 -17   732.8    34.9   1
   6   7 -16  1582.1    42.7   1
   6   7 -14   908.5    38.4   1
   6   7 -13  1067.2    40.3   1
   6   7 -11  1222.5    28.1   1
   6   7 -10    33.1    14.4   1
   6   7  -9   119.3    13.0   1
   6   7  -8   843.4    19.3   1
   6   7  -7   439.0    14.3   1
   6   7  -5   436.3    12.2   1
   6   7  -4   119.6    11.3   1
   6   7  -3   260.3    10.5   1
   6   7  -2    35.7     7.9   1
   6   7  -1   128.9    13.7   1
   6   7   1  1413.5    28.0   1
   6   7   2   202.7    14.5   1
   6   7   3    49.4    13.8   1
   6   7   4    64.8    16.7   1
   6   7   8   152.1    19.7   1
   6   7   9   434.5    23.4   1
   6   7  10   632.6    29.9   1
   6   7  12   349.5    29.4   1
   6   7  13  1316.4    39.1   1
   6   7  14     3.7    35.6   1
   6   7  15  1839.3    61.7   1
   6   7  16   143.7    58.2   1
   6   7  17   642.3    74.9   1
   6   7  18   403.4    92.0   1
   6   7  19   142.7   121.3   1
   6   7  20   191.6   153.8   1
   6   7  21   329.0   197.7   1
   6   8 -25   300.2   111.3   1
   6   8 -23   272.7    68.2   1
   6   8 -21  2647.7    68.2   1
   6   8 -19   612.5    42.7   1
   6   8 -17   802.6    36.7   1
   6   8 -15    39.8    28.9   1
   6   8 -13   125.1    29.3   1
   6   8 -11   120.2    17.1   1
   6   8  -9   474.4    16.7   1
   6   8  -7   394.2    12.3   1
   6   8  -5   336.6    11.5   1
   6   8  -3   209.6    11.0   1
   6   8  -1    67.0    11.9   1
   6   8   1   122.4    10.8   1
   6   8   3    34.7    13.1   1
   6   8   5   167.6    18.7   1
   6   8   9   -39.5    21.5   1
   6   8  11   249.4    31.2   1
   6   8  13   685.8    37.0   1
   6   8  15   321.0    52.5   1
   6   8  17    32.3    76.5   1
   6   8  19   236.6   126.3   1
   6   8  21  -332.9   200.2   1
   6   9 -26  -113.2   141.7   1
   6   9 -25    77.7   113.2   1
   6   9 -23   106.3    71.0   1
   6   9 -22   -89.4    56.2   1
   6   9 -20  1133.6    56.2   1
   6   9 -19   342.5    42.9   1
   6   9 -17   978.3    41.0   1
   6   9 -16   921.5    38.0   1
   6   9 -14  2158.9    67.1   1
   6   9 -13   319.3    35.3   1
   6   9 -11   885.4    29.4   1
   6   9 -10   115.8    16.8   1
   6   9  -8  2047.3    36.4   1
   6   9  -7     0.3    10.5   1
   6   9  -5    22.0     9.6   1
   6   9  -4    17.4     8.4   1
   6   9  -2   270.1    12.8   1
   6   9  -1   539.3    14.4   1
   6   9   1  1587.5    28.7   1
   6   9   2    59.6    10.6   1
   6   9   4  1499.0    30.0   1
   6   9   5  1835.8    40.4   1
   6   9   7  5838.9   109.5   1
   6   9   8    17.5    27.4   1
   6   9  10   254.5    27.9   1
   6   9  11    -5.6    32.0   1
   6   9  13  1937.2    53.5   1
   6   9  14   -33.7    44.1   1
   6   9  16    22.2    65.5   1
   6   9  17    39.0    80.6   1
   6  10 -25   101.7   120.0   1
   6  10 -23    78.8    81.3   1
   6  10 -19    74.5    44.5   1
   6  10 -13     3.9    34.9   1
   6  10 -11  1122.1    34.2   1
   6  10  -9   198.2    16.3   1
   6  10  -7   695.6    21.9   1
   6  10  -5   356.0    13.9   1
   6  10  -3    65.7    10.3   1
   6  10  -1    91.2    10.7   1
   6  10   1    92.2    11.2   1
   6  10   3  1136.1    24.5   1
   6  10   5   499.0    25.6   1
   6  10   7  1048.1    35.6   1
   6  10   9   529.1    31.7   1
   6  10  11   -26.3    32.6   1
   6  10  13  1125.1    47.5   1
   6  10  15  -111.6    57.2   1
   6  10  17   386.4    86.4   1
   6  10  19  -189.1   139.4   1
   6  10  21   -64.9   216.1   1
   6  11 -25  -138.1   128.3   1
   6  11 -24   104.0    94.7   1
   6  11 -21   448.6    55.9   1
   6  11 -20  -207.9    54.8   1
   6  11 -18    68.2    40.4   1
   6  11 -16   549.5    39.7   1
   6  11 -15   532.1    34.9   1
   6  11 -14    66.9    35.5   1
   6  11 -13  2613.2    83.5   1
   6  11 -11   119.6    27.9   1
   6  11 -10  2752.5    56.3   1
   6  11  -9    50.1    18.8   1
   6  11  -8    61.0    19.5   1
   6  11  -7    -5.9    18.7   1
   6  11  -5   320.9    15.8   1
   6  11  -4    25.9    14.5   1
   6  11  -3   497.2    15.5   1
   6  11  -2    41.8    12.3   1
   6  11  -1   359.5    13.5   1
   6  11   1  2103.5    42.6   1
   6  11   2   882.3    21.2   1
   6  11   3   180.5    13.3   1
   6  11   4  4636.0    89.0   1
   6  11   5  2088.8    50.9   1
   6  11   7   422.2    23.8   1
   6  11   8  1049.4    35.0   1
   6  11   9   483.0    29.7   1
   6  11  10   -10.4    28.9   1
   6  11  11    86.1    34.4   1
   6  11  13   162.3    42.9   1
   6  11  14    -7.9    49.1   1
   6  11  15   103.1    60.4   1
   6  11  17   970.4    94.4   1
   6  11  18    64.3   109.2   1
   6  11  19  -279.3   147.4   1
   6  11  20     2.6   180.0   1
   6  12 -19   -27.1    50.1   1
   6  12 -17    57.8    39.0   1
   6  12 -11   944.5    45.2   1
   6  12  -7   102.0    17.7   1
   6  12  -5   327.5    18.4   1
   6  12  -1   140.9    12.1   1
   6  12   1   129.9    12.0   1
   6  12   5  1943.1    44.2   1
   6  12   7    -6.9    21.6   1
   6  12  11   412.9    48.1   1
   6  13 -24   166.9   111.8   1
   6  13 -23  -125.1    88.7   1
   6  13 -22   -29.3    75.1   1
   6  13 -21   503.1    63.5   1
   6  13 -20   476.3    65.8   1
   6  13 -17    35.6    41.1   1
   6  13 -16   656.7    43.0   1
   6  13 -13   113.7    37.7   1
   6  13 -11   208.0    43.0   1
   6  13 -10    43.4    33.0   1
   6  13  -9   367.7    32.1   1
   6  13  -8   170.8    21.8   1
   6  13  -7  1912.7    41.1   1
   6  13  -5  2906.2    67.9   1
   6  13  -4   139.6    15.9   1
   6  13  -3    29.0    15.7   1
   6  13  -2   708.4    21.9   1
   6  13  -1  1770.5    25.6   1
   6  13   1   879.5    20.6   1
   6  13   2    35.3    13.9   1
   6  13   3   207.1    14.0   1
   6  13   4    64.8    16.8   1
   6  13   5   367.6    21.1   1
   6  13   6    42.6    19.7   1
   6  13   7   386.2    24.4   1
   6  13   8    71.5    24.9   1
   6  13   9   -35.3    28.9   1
   6  13  10   238.3    32.7   1
   6  13  11   284.6    36.0   1
   6  13  13   106.4    56.5   1
   6  13  14    46.9    68.3   1
   6  13  15   -58.8    67.3   1
   6  13  16   512.8    86.0   1
   6  13  17  1238.7   105.2   1
   6  13  18   -86.9   128.2   1
   6  13  19   647.5   166.0   1
   6  13  20  -414.6   201.2   1
   6  14 -25   857.0   160.3   1
   6  14 -23  -200.8    94.2   1
   6  14 -21  -259.9    65.9   1
   6  14 -17   -18.5    44.5   1
   6  14 -15   -25.7    36.9   1
   6  14 -11   444.2    36.6   1
   6  14  -9  3438.1    79.3   1
   6  14  -7     5.8    22.0   1
   6  14  -5  1917.8    39.4   1
   6  14  -3    25.3    26.2   1
   6  14  -1  1193.8    23.1   1
   6  14   1    82.6    14.1   1
   6  14   3   833.9    23.5   1
   6  14   5    -2.6    18.6   1
   6  14   7  1670.8    39.5   1
   6  14   9    64.9    26.8   1
   6  14  11   190.8    36.5   1
   6  14  13    40.9    50.4   1
   6  14  15    -7.7    71.0   1
   6  14  17  -152.4   103.7   1
   6  14  19   256.6   175.8   1
   6  15 -23   -21.6   100.9   1
   6  15 -22   255.3    87.2   1
   6  15 -20   622.4    77.8   1
   6  15 -19   105.7    63.2   1
   6  15 -17   612.8    50.8   1
   6  15 -16    27.4    41.9   1
   6  15 -14    51.9    36.1   1
   6  15 -13   149.9    32.6   1
   6  15 -11   -28.3    37.0   1
   6  15 -10  2004.2    59.7   1
   6  15  -8  1297.1    38.9   1
   6  15  -7   707.5    30.8   1
   6  15  -5   197.1    18.5   1
   6  15  -4   570.0    21.8   1
   6  15  -2  1664.0    33.9   1
   6  15  -1  1345.0    32.8   1
   6  15   1   997.5    32.9   1
   6  15   2  5055.8    73.1   1
   6  15   4  1693.3    31.7   1
   6  15   5     4.6    18.2   1
   6  15   7  1132.4    35.1   1
   6  15   8    30.0    24.5   1
   6  15  10   342.1    33.1   1
   6  15  11   874.9    42.1   1
   6  15  13   -67.6    55.2   1
   6  15  14   748.0    68.7   1
   6  15  16   896.1    99.7   1
   6  15  17   143.5   115.7   1
   6  15  19  -110.5   185.2   1
   6  16 -23    57.1   110.8   1
   6  16 -21   -53.2    77.8   1
   6  16 -19   -12.5    69.8   1
   6  16 -17   -75.3    49.9   1
   6  16 -13    96.3    34.5   1
   6  16 -11    -6.8    38.2   1
   6  16  -7     5.9    27.1   1
   6  16  -5   148.0    21.9   1
   6  16  -3    -1.0    19.2   1
   6  16  -1   162.0    30.3   1
   6  16   1   730.5    29.8   1
   6  16   3  2055.6    44.5   1
   6  16   5     0.2    19.3   1
   6  16   7   788.2    25.1   1
   6  16   9    87.9    27.0   1
   6  16  11    91.3    41.1   1
   6  16  13  -168.3    59.4   1
   6  16  15  -236.6    83.1   1
   6  16  17  -355.5   124.8   1
   6  16  19   352.9   198.9   1
   6  17 -24   180.6   159.4   1
   6  17 -22   237.7    99.9   1
   6  17 -21  -197.9    83.9   1
   6  17 -20  1024.3    96.0   1
   6  17 -19   -19.7    76.3   1
   6  17 -18   -29.3    62.4   1
   6  17 -16   199.6    47.9   1
   6  17 -14   -64.9    36.5   1
   6  17 -13   412.0    36.3   1
   6  17 -11     1.5    29.4   1
   6  17  -8  2008.6    47.0   1
   6  17  -7  1012.2    34.9   1
   6  17  -5    11.3    33.7   1
   6  17  -4  5375.4   136.8   1
   6  17  -3   328.4    28.3   1
   6  17  -2    42.6    30.1   1
   6  17  -1     0.1    42.4   1
   6  17   1   148.8    24.4   1
   6  17   2  1147.6    35.6   1
   6  17   3   254.9    24.2   1
   6  17   4    68.8    19.7   1
   6  17   5   -17.2    20.4   1
   6  17   6    67.9    24.1   1
   6  17   7    12.9    22.1   1
   6  17   8   253.3    25.7   1
   6  17   9  1180.6    40.8   1
   6  17  10    -0.4    36.9   1
   6  17  11    -5.6    42.8   1
   6  17  13   285.9    61.9   1
   6  17  14   827.4    76.9   1
   6  17  15   158.6    89.5   1
   6  17  18  1948.6   186.9   1
   6  17  19  -215.8   214.8   1
   6  18 -19    -9.8    77.2   1
   6  18 -17    67.9    58.0   1
   6  18 -13    -6.2    34.5   1
   6  18 -11    -6.2    27.4   1
   6  18  -1  1367.7    89.9   1
   6  18   1    76.1    27.6   1
   6  18   7   409.7    25.7   1
   6  18  17   238.1   152.5   1
   6  19 -23   889.7   159.9   1
   6  19 -22  1037.1   126.6   1
   6  19 -21  1687.4   108.0   1
   6  19 -20   240.9    84.5   1
   6  19 -17  -130.7    63.6   1
   6  19 -16  1232.3    63.6   1
   6  19 -15   192.4    48.8   1
   6  19 -14   706.8    45.9   1
   6  19 -13   143.1    37.8   1
   6  19 -11   -16.0    28.1   1
   6  19 -10  1024.5    35.3   1
   6  19   1  2326.1    76.6   1
   6  19   2    18.7    31.2   1
   6  19   4    34.9    26.1   1
   6  19   5   -11.8    28.0   1
   6  19   6   208.4    23.5   1
   6  19   7   898.8    30.8   1
   6  19   8  1872.9    42.6   1
   6  19   9  1625.7    50.5   1
   6  19  10   165.6    44.6   1
   6  19  11    55.2    52.1   1
   6  19  12   -38.4    58.1   1
   6  19  14   -56.6    87.3   1
   6  19  15   -87.9   104.7   1
   6  19  16    73.1   134.5   1
   6  19  18   161.4   203.4   1
   6  20 -21   343.0   106.8   1
   6  20 -17   112.0    68.2   1
   6  20 -11   142.4    29.8   1
   6  20   5   256.5    32.5   1
   6  20   7   -61.8    27.0   1
   6  20   9    20.2    40.1   1
   6  20  11   -73.1    55.4   1
   6  20  15   865.9   119.2   1
   6  20  17  -399.7   176.3   1
   6  21 -20   963.6    99.7   1
   6  21 -11  1281.0    41.7   1
   6  21 -10   549.1    32.3   1
   6  21   5  1599.4    60.2   1
   6  21   7    -0.3    36.7   1
   6  21   8   793.7    38.1   1
   6  21  10    51.9    52.8   1
   6  21  11    88.0    60.8   1
   6  21  13   469.0    86.3   1
   6  21  14   288.7   108.2   1
   6  21  16   564.8   162.9   1
   6  21  17   200.6   196.4   1
   6  22 -21   266.2   135.5   1
   6  22 -19   238.4    87.1   1
   6  22 -11  1151.8    43.3   1
   6  22   7   135.9    42.3   1
   6  22   9   -38.5    51.7   1
   6  22  11   155.0    66.5   1
   6  22  15  1529.3   156.0   1
   6  23 -21  -181.3   152.2   1
   6  23 -20   -65.2   120.2   1
   6  23 -19   457.9    97.7   1
   6  23   8   -63.7    52.0   1
   6  23   9   313.8    58.2   1
   6  23  10  2588.7    96.5   1
   6  23  13   446.2   114.8   1
   6  23  15   626.2   164.4   1
   6  24 -19   198.4   110.5   1
   6  24  11  1241.0   100.7   1
   6  24  13     2.0   125.6   1
   6  25 -20   585.3   153.7   1
   6  25   8  1354.1    87.7   1
   6  25   9  -114.6    82.3   1
   6  25  10    80.6    75.1   1
   6  25  11  3037.5   137.1   1
   6  25  14   110.2   135.5   1
   6  25  15  -178.6   160.6   1
   6  26 -19   269.3   143.7   1
   6  26 -17   241.8    97.6   1
   6  26   9   311.5    97.3   1
   6  26  11    13.8    95.2   1
   6  27 -17  1020.9   118.7   1
   6  27 -16   -59.4    95.0   1
   6  27  11   -45.2   111.9   1
   6  27  13  -191.4   145.7   1
   6  28 -15   143.9    97.6   1
   6  28  11   381.1   134.7   1
   6  29 -16  -191.0   130.0   1
   6  29 -15   -92.6   115.4   1
   7   0 -16   106.7    24.3   1
   7   0 -15     0.1    19.9   1
   7   0 -13    -0.2    18.4   1
   7   0 -10   198.9    16.4   1
   7   0   9   -29.7    25.6   1
   7   0  11   -35.5    27.7   1
   7   0  13     7.1    33.4   1
   7   0  15   -39.2    41.3   1
   7   0  16   273.3    52.0   1
   7   0  18    55.6    80.1   1
   7   1 -25   296.6   132.9   1
   7   1 -24   466.5    98.7   1
   7   1 -23   212.8    82.6   1
   7   1 -21   205.5    49.0   1
   7   1 -20   135.3    34.6   1
   7   1 -19   581.8    32.4   1
   7   1 -18  3149.6    49.0   1
   7   1 -17    71.9    19.3   1
   7   1 -16   202.9    17.9   1
   7   1 -15    15.7    22.0   1
   7   1 -14    44.5    14.7   1
   7   1 -13    98.7    13.9   1
   7   1 -12  1972.4    27.9   1
   7   1 -11   609.1    18.5   1
   7   1 -10   193.5    12.1   1
   7   1  -9    25.7    12.7   1
   7   1  -8   983.7    20.7   1
   7   1  -6  1306.6    23.4   1
   7   1  -5    98.4    11.5   1
   7   1  -4   239.6    13.0   1
   7   1  -2  8059.6   133.9   1
   7   1  -1   768.6    20.0   1
   7   1   1     0.1    10.9   1
   7   1   2   234.7    13.3   1
   7   1   3    37.0    16.8   1
   7   1   7   149.4    19.3   1
   7   1   8   218.0    23.2   1
   7   1   9  1534.5    29.6   1
   7   1  10   296.4    19.8   1
   7   1  11     4.9    17.1   1
   7   1  12    28.5    19.1   1
   7   1  13   478.5    32.9   1
   7   1  14   146.3    30.6   1
   7   1  15   -35.6    30.1   1
   7   1  16     2.5    36.0   1
   7   1  17   143.7    45.5   1
   7   1  18   -74.4    57.1   1
   7   1  19   112.6    77.1   1
   7   1  20    48.0    96.7   1
   7   1  21   235.9   129.9   1
   7   2 -27   496.6   193.5   1
   7   2 -26  -221.5   134.2   1
   7   2 -25   378.1   106.9   1
   7   2 -24    59.0    78.7   1
   7   2 -23   241.3    64.2   1
   7   2 -22   107.6    48.8   1
   7   2 -21   180.3    50.5   1
   7   2 -20   710.1    37.0   1
   7   2 -19   750.1    32.7   1
   7   2 -18   153.5    22.4   1
   7   2 -17  2891.2    49.2   1
   7   2 -16    -0.8    18.6   1
   7   2 -15   282.4    20.9   1
   7   2 -13   675.0    18.7   1
   7   2 -12    25.6    11.8   1
   7   2 -11   213.9    13.2   1
   7   2 -10   598.1    16.7   1
   7   2  -9    66.3    14.0   1
   7   2  -8    39.0     9.9   1
   7   2  -7   423.9    15.9   1
   7   2  -6    -3.1    10.7   1
   7   2  -4   394.8    14.0   1
   7   2  -3  1485.8    33.8   1
   7   2  -1     9.4    10.8   1
   7   2   1    32.3    13.3   1
   7   2   3    10.7    15.9   1
   7   2   4     8.0    19.0   1
   7   2   8  2280.0    34.5   1
   7   2   9    18.9    19.7   1
   7   2  10   614.5    19.3   1
   7   2  11   105.6    17.9   1
   7   2  12   829.4    26.0   1
   7   2  13   782.2    29.1   1
   7   2  14    -8.8    27.4   1
   7   2  15   217.0    34.0   1
   7   2  16   671.9    44.3   1
   7   2  17   475.4    54.2   1
   7   2  18    60.8    63.6   1
   7   2  19   126.9    98.5   1
   7   2  20    85.9   126.3   1
   7   2  21  1062.9   167.8   1
   7   3 -26   875.9   132.3   1
   7   3 -25  -129.9   103.6   1
   7   3 -24   174.9    77.9   1
   7   3 -23   811.3    67.4   1
   7   3 -22   120.0    57.2   1
   7   3 -21   144.9    47.1   1
   7   3 -20    18.4    38.2   1
   7   3 -19   485.9    30.9   1
   7   3 -18    11.7    24.1   1
   7   3 -17   445.4    23.7   1
   7   3 -16  1115.6    33.9   1
   7   3 -15    95.0    21.0   1
   7   3 -13   210.2    16.1   1
   7   3 -12  2066.7    26.2   1
   7   3 -11    39.6    10.7   1
   7   3 -10    60.6    10.5   1
   7   3  -9  2025.9    30.5   1
   7   3  -8   393.3    12.9   1
   7   3  -6   173.4    16.7   1
   7   3  -5  1961.7    32.3   1
   7   3  -4     2.7    11.2   1
   7   3  -3   106.3    12.0   1
   7   3  -2    13.7    10.9   1
   7   3  -1  1633.1    37.4   1
   7   3   0   117.0    12.0   1
   7   3   1   145.4    14.8   1
   7   3   2    25.3    13.2   1
   7   3   5  1811.7    42.1   1
   7   3   6   166.0    22.6   1
   7   3   8   110.3    18.3   1
   7   3   9  1918.3    30.2   1
   7   3  10   233.1    22.0   1
   7   3  11    52.2    31.7   1
   7   3  12    -7.8    24.5   1
   7   3  13   -46.3    29.0   1
   7   3  14  1384.1    49.6   1
   7   3  15   166.6    34.5   1
   7   3  16    -9.9    46.5   1
   7   3  17    10.4    58.3   1
   7   3  18   -37.9    71.1   1
   7   3  19   627.2   101.5   1
   7   3  20  -152.7   126.4   1
   7   3  21     1.5   164.2   1
   7   4 -26   -77.7   128.6   1
   7   4 -25    51.8   100.4   1
   7   4 -24   707.6    81.7   1
   7   4 -23  1084.2    68.1   1
   7   4 -22    56.7    59.8   1
   7   4 -20     2.3    40.4   1
   7   4 -19    84.5    28.7   1
   7   4 -17   -30.7    22.9   1
   7   4 -16    76.9    25.2   1
   7   4 -15    98.2    22.1   1
   7   4 -13   288.9    17.7   1
   7   4 -12   690.1    18.6   1
   7   4 -11   615.1    19.1   1
   7   4 -10   115.4    12.4   1
   7   4  -9   438.0    14.8   1
   7   4  -8   634.4    16.9   1
   7   4  -6   106.1    13.1   1
   7   4  -4   103.8    14.2   1
   7   4  -3   578.3    16.6   1
   7   4  -2  1667.2    32.2   1
   7   4  -1     3.8    12.3   1
   7   4   1   989.6    29.8   1
   7   4   2    19.7    20.9   1
   7   4   4    37.6    19.2   1
   7   4   5   149.7    21.9   1
   7   4   6  8233.0   130.1   1
   7   4   8  2606.6    37.7   1
   7   4   9   311.4    20.1   1
   7   4  10  1296.3    33.5   1
   7   4  11   -25.4    22.3   1
   7   4  12   107.9    26.1   1
   7   4  13    28.1    38.6   1
   7   4  14   219.9    36.3   1
   7   4  15   262.1    43.0   1
   7   4  16   860.3    57.1   1
   7   4  17   787.9    75.5   1
   7   4  18   -86.8    76.0   1
   7   4  19  -228.1    97.1   1
   7   4  20   843.5   133.7   1
   7   5 -26    59.4   126.2   1
   7   5 -25   -27.0    98.6   1
   7   5 -24    32.8    76.6   1
   7   5 -20   429.1    44.9   1
   7   5 -19   565.4    39.2   1
   7   5 -18   122.6    26.8   1
   7   5 -17    14.5    24.2   1
   7   5 -16   373.6    30.7   1
   7   5 -15     4.6    24.8   1
   7   5 -13   616.7    22.1   1
   7   5 -12  2207.9    39.8   1
   7   5 -11    60.4    14.1   1
   7   5 -10     9.2    12.5   1
   7   5  -9    31.6     9.8   1
   7   5  -8  3319.1    54.3   1
   7   5  -6   246.8    12.1   1
   7   5  -5   130.6    12.0   1
   7   5  -4     4.0    10.4   1
   7   5  -3   135.5    11.0   1
   7   5  -1   203.2    10.5   1
   7   5   0   468.1    23.1   1
   7   5   1  3371.6    52.4   1
   7   5   2   999.5    24.2   1
   7   5   3    61.4    13.8   1
   7   5   4   863.2    24.7   1
   7   5   5   469.9    21.4   1
   7   5   6   194.2    18.7   1
   7   5   7  1420.8    40.7   1
   7   5   8  6948.0    85.3   1
   7   5   9  1368.5    42.1   1
   7   5  10  1579.2    40.1   1
   7   5  11   299.7    24.8   1
   7   5  12   103.6    34.1   1
   7   5  13    13.9    36.5   1
   7   5  14   278.1    38.7   1
   7   5  15   -67.4    44.0   1
   7   5  16   613.0    59.4   1
   7   5  17  -202.6    66.5   1
   7   5  18   -35.7    80.3   1
   7   5  19   563.1   105.8   1
   7   5  20   832.3   135.8   1
   7   6 -26   311.5   130.8   1
   7   6 -25   -74.4    98.9   1
   7   6 -24   378.5    79.0   1
   7   6 -18  1550.5    48.8   1
   7   6 -17   -29.6    25.7   1
   7   6 -16   191.1    30.6   1
   7   6 -15    24.9    27.1   1
   7   6 -14    42.8    23.3   1
   7   6 -12   292.4    17.9   1
   7   6 -11   864.6    27.2   1
   7   6 -10   942.3    25.0   1
   7   6  -9    44.2    12.8   1
   7   6  -8    91.3    11.2   1
   7   6  -6   693.6    17.3   1
   7   6  -5   210.9    12.1   1
   7   6  -4   561.2    16.3   1
   7   6  -3     5.6    12.6   1
   7   6  -2   887.0    29.1   1
   7   6  -1   177.3    10.8   1
   7   6   1   303.0    17.1   1
   7   6   2  2400.0    40.1   1
   7   6   3   614.2    19.6   1
   7   6   4  3284.4    73.1   1
   7   6   5   473.9    24.3   1
   7   6   7  3248.9    63.9   1
   7   6   8   369.6    32.0   1
   7   6   9  2031.3    39.9   1
   7   6  10  1225.7    37.9   1
   7   6  11  1631.5    39.8   1
   7   6  12   -49.3    31.4   1
   7   6  14   107.6    44.2   1
   7   6  15   -12.8    46.7   1
   7   6  16   -38.0    57.8   1
   7   6  17    58.1    68.0   1
   7   6  18   -67.1    81.1   1
   7   6  19   -66.5   102.1   1
   7   7 -16    88.4    48.5   1
   7   7 -12   215.4    22.6   1
   7   7 -11  2151.7    53.5   1
   7   7 -10    61.7    17.2   1
   7   7  -9    74.0    14.6   1
   7   7  -8   288.6    13.2   1
   7   7  -6   253.0    11.1   1
   7   7  -5   251.3    13.3   1
   7   7  -4    12.0    11.5   1
   7   7  -3   293.1    12.1   1
   7   7  -2   254.5    14.6   1
   7   7  -1   104.7    12.5   1
   7   7   1  1540.4    33.6   1
   7   7   2    66.2    13.1   1
   7   7   4  1121.9    31.0   1
   7   7   5  1168.5    33.0   1
   7   7   9   128.7    34.8   1
   7   7  11   199.3    46.9   1
   7   8 -26  1802.7   148.9   1
   7   8 -25   -27.1   108.4   1
   7   8 -24   477.0    83.3   1
   7   8 -19    40.6    41.6   1
   7   8 -18    14.2    35.2   1
   7   8 -17   889.7    40.8   1
   7   8 -16  1099.6    47.2   1
   7   8 -13   598.3    31.7   1
   7   8 -12   729.2    33.0   1
   7   8 -11   971.4    35.2   1
   7   8 -10   165.5    15.8   1
   7   8  -9   247.2    24.4   1
   7   8  -8    -0.8    11.5   1
   7   8  -6    96.0    11.0   1
   7   8  -5  2652.2    36.8   1
   7   8  -4  1571.5    28.9   1
   7   8  -3   156.1    11.6   1
   7   8  -2  2610.6    35.6   1
   7   8  -1  2473.1    49.9   1
   7   8   2  1729.9    28.5   1
   7   8   3    58.6    14.3   1
   7   8   4   514.5    21.3   1
   7   8   5  1676.3    43.8   1
   7   8   6  1276.8    37.2   1
   7   8   8   563.8    32.9   1
   7   8   9   245.6    30.6   1
   7   8  10   133.2    29.1   1
   7   8  11   -32.3    30.8   1
   7   8  12   112.9    36.8   1
   7   8  13  1053.5    46.1   1
   7   8  14   317.7    44.7   1
   7   8  16   -50.2    62.4   1
   7   8  18   460.8   112.9   1
   7   8  19  -157.2   149.9   1
   7   8  20   221.9   189.6   1
   7   9 -26   148.6   140.3   1
   7   9 -20   650.5    55.6   1
   7   9 -18  2685.6    65.7   1
   7   9 -17    84.7    35.3   1
   7   9 -16  2831.5    79.2   1
   7   9 -15   289.0    36.6   1
   7   9 -13    17.2    26.4   1
   7   9 -12   559.9    36.0   1
   7   9 -11  1037.2    35.8   1
   7   9 -10  2200.7    41.0   1
   7   9  -9  2413.5    44.6   1
   7   9  -8  3553.4    45.0   1
   7   9  -6   105.0    10.7   1
   7   9  -5    11.4    11.0   1
   7   9  -4   602.1    15.1   1
   7   9  -3  1106.3    24.0   1
   7   9  -2    53.0    12.5   1
   7   9  -1   706.3    20.8   1
   7   9   1    58.9    13.8   1
   7   9   2    62.0    12.9   1
   7   9   3    14.8    14.7   1
   7   9   4   416.4    18.8   1
   7   9   5   551.3    25.5   1
   7   9   6  2091.3    44.9   1
   7   9   7    78.5    30.4   1
   7   9   8   223.1    29.0   1
   7   9   9   264.4    32.7   1
   7   9  10   486.5    30.7   1
   7   9  11   485.8    35.4   1
   7   9  12   -89.7    37.9   1
   7   9  13   -91.2    40.5   1
   7   9  15   326.8    54.6   1
   7   9  17   262.7    96.7   1
   7   9  19   329.5   160.5   1
   7   9  20   423.3   197.4   1
   7  10 -25  -363.7   116.5   1
   7  10 -20  1128.0    63.9   1
   7  10 -19  1869.6    66.3   1
   7  10 -18   -43.8    38.9   1
   7  10 -16   -59.0    35.0   1
   7  10 -15   689.4    44.5   1
   7  10 -14   204.5   109.5   1
   7  10 -13  1613.6    46.5   1
   7  10 -12    31.0    26.2   1
   7  10 -11   745.7    29.5   1
   7  10 -10  1390.4    57.5   1
   7  10  -9  1220.8    30.4   1
   7  10  -8  1295.0    34.9   1
   7  10  -6    53.2    14.2   1
   7  10  -5  2076.0    38.5   1
   7  10  -4   716.1    24.1   1
   7  10  -3  1522.5    25.4   1
   7  10  -2    -2.8    12.7   1
   7  10  -1     2.8    12.4   1
   7  10   1   783.3    22.2   1
   7  10   2   118.0    13.0   1
   7  10   3   605.0    22.7   1
   7  10   4    12.3    16.7   1
   7  10   5   399.0    24.8   1
   7  10   6    73.5    21.7   1
   7  10   8   833.3    36.3   1
   7  10   9   330.3    31.9   1
   7  10  10    35.8    29.9   1
   7  10  11   -10.1    34.3   1
   7  10  12   214.5    37.3   1
   7  10  13   904.5    46.6   1
   7  10  14  1614.0    58.1   1
   7  10  15  -137.3    55.8   1
   7  10  16  -182.9    78.6   1
   7  10  17    96.2   101.0   1
   7  10  18    95.5   126.5   1
   7  10  19  -609.6   166.3   1
   7  10  20  -167.6   204.0   1
   7  11 -19    65.5    50.3   1
   7  11 -16   236.2    37.3   1
   7  11 -15  2291.0    72.6   1
   7  11 -13  1158.8    45.6   1
   7  11 -12   865.5    36.7   1
   7  11  -9  4730.6    87.6   1
   7  11  -8  1240.2    31.0   1
   7  11  -7   503.9    28.0   1
   7  11  -6   255.0    18.5   1
   7  11  -5    -5.8    13.1   1
   7  11  -4   808.9    24.8   1
   7  11  -3  2564.6    41.5   1
   7  11  -2   376.6    13.5   1
   7  11  -1   433.1    16.1   1
   7  11   1  3036.7    57.5   1
   7  11   2    94.7    12.6   1
   7  11   3   477.0    20.4   1
   7  11   4    33.4    17.5   1
   7  11   5   203.9    23.9   1
   7  11   6   387.1    25.9   1
   7  11   8    11.6    28.3   1
   7  11   9    97.2    32.1   1
   7  11  10   383.1    35.9   1
   7  11  12     6.7    38.2   1
   7  11  13   257.2    44.2   1
   7  11  14    58.2    49.5   1
   7  11  15   -75.1    72.4   1
   7  11  16   404.7    86.8   1
   7  11  17  1305.8   114.8   1
   7  11  18  -190.4   134.6   1
   7  11  19  -357.3   172.8   1
   7  11  20  -645.1   219.2   1
   7  12 -25   126.1   131.6   1
   7  12 -18   356.5    47.0   1
   7  12 -17   562.2    43.2   1
   7  12 -16   -78.2    40.4   1
   7  12 -15   737.5    41.9   1
   7  12 -13   278.0    40.3   1
   7  12 -12   484.8    38.8   1
   7  12 -11  2028.1    55.8   1
   7  12 -10  1250.4    36.4   1
   7  12  -9  2708.2    70.8   1
   7  12  -8    -6.2    19.4   1
   7  12  -6   399.7    24.1   1
   7  12  -5  1706.4    33.7   1
   7  12  -4  1221.6    27.8   1
   7  12  -3   682.0    19.5   1
   7  12  -2   699.6    22.0   1
   7  12  -1     6.5    13.2   1
   7  12   1  1144.5    23.9   1
   7  12   2    18.2    16.1   1
   7  12   3    58.0    16.2   1
   7  12   4  4033.3    63.3   1
   7  12   5   703.4    26.7   1
   7  12   6   209.1    24.7   1
   7  12   8   395.5    29.9   1
   7  12   9   208.5    28.6   1
   7  12  10   169.4    31.3   1
   7  12  11   200.8    36.5   1
   7  12  12   397.4    48.5   1
   7  12  13   166.0    44.7   1
   7  12  15  -220.5    76.1   1
   7  13 -25  -308.2   142.4   1
   7  13 -19  2129.5    79.3   1
   7  13 -18  1887.2    68.2   1
   7  13 -16     5.5    39.7   1
   7  13 -11     8.8    31.3   1
   7  13 -10     3.9    26.0   1
   7  13  -9   825.6    33.0   1
   7  13  -8  1682.9    46.2   1
   7  13  -6    45.1    16.9   1
   7  13  -5  1195.8    34.9   1
   7  13  -4   321.5    19.4   1
   7  13  -3  3073.1    41.8   1
   7  13  -2  1931.3    35.1   1
   7  13  -1  1034.5    31.1   1
   7  13   1    64.4    13.8   1
   7  13   2  1326.8    28.2   1
   7  13   3   132.2    16.2   1
   7  13   4   781.2    27.6   1
   7  13   5   171.7    22.9   1
   7  13   8   536.2    29.4   1
   7  13   9  1054.3    36.5   1
   7  13  10    -9.2    32.1   1
   7  13  11  1739.8    47.7   1
   7  13  12    79.0    41.8   1
   7  13  15   907.9    87.0   1
   7  13  16   -82.4    95.8   1
   7  13  17  -126.4   119.5   1
   7  13  18  -227.9   157.9   1
   7  13  19  -316.9   194.7   1
   7  14 -25   -78.6   148.6   1
   7  14 -16   -53.5    42.5   1
   7  14 -15   153.5    35.5   1
   7  14 -10   730.6    44.1   1
   7  14  -9   130.0    27.8   1
   7  14  -8   480.1    31.0   1
   7  14  -6     8.1    18.9   1
   7  14  -5   280.6    22.2   1
   7  14  -4  1287.9    39.1   1
   7  14  -3   216.5    18.9   1
   7  14  -2   130.7    16.5   1
   7  14  -1  1497.5    35.3   1
   7  14   1   393.5    18.2   1
   7  14   2   547.1    20.0   1
   7  14   3  1368.4    28.3   1
   7  14   4   219.4    25.3   1
   7  14   6   611.7    29.8   1
   7  14   8    -6.3    26.8   1
   7  14  12   561.4    51.7   1
   7  14  16   894.3   110.8   1
   7  15 -17  2211.6    71.8   1
   7  15 -16   402.2    46.4   1
   7  15 -13   -53.2    37.6   1
   7  15 -10   427.2    38.0   1
   7  15  -9  1863.0    53.2   1
   7  15  -8  2225.8    46.7   1
   7  15  -6   702.4    28.2   1
   7  15  -5   158.2    21.6   1
   7  15  -4   257.6    22.0   1
   7  15  -3     8.8    26.8   1
   7  15  -2   -10.7    19.0   1
   7  15  -1  1940.5    36.7   1
   7  15   1   319.9    18.2   1
   7  15   2   550.5    21.0   1
   7  15   3   227.7    18.9   1
   7  15   4   338.2    18.9   1
   7  15   5  5771.0    75.0   1
   7  15   6    99.1    21.9   1
   7  15   8   155.1    30.9   1
   7  15   9  1358.0    39.2   1
   7  15  10   403.0    35.7   1
   7  15  11  3013.1    61.8   1
   7  15  12   265.1    52.7   1
   7  15  13   -53.8    62.6   1
   7  15  16  1585.4   125.1   1
   7  15  17  -217.3   150.6   1
   7  15  19  -614.8   215.8   1
   7  16 -13   191.0    32.5   1
   7  16 -12   -45.9    36.4   1
   7  16 -11   141.7    34.2   1
   7  16 -10   418.1    33.1   1
   7  16  -9   -19.9    28.6   1
   7  16  -8    -8.3    27.2   1
   7  16  -6   -31.0    22.6   1
   7  16  -5   -25.9    22.4   1
   7  16  -4   668.0    28.0   1
   7  16  -2  1587.6    54.4   1
   7  16  -1   224.1    22.7   1
   7  16   1    18.8    29.9   1
   7  16   2   337.2    26.3   1
   7  16   3   602.1    24.4   1
   7  16   4   211.6    20.0   1
   7  16   5  1394.6    34.4   1
   7  16   6   -26.4    21.5   1
   7  16   7   -14.8    30.5   1
   7  16   8    80.6    27.6   1
   7  16   9   136.9    31.7   1
   7  16  10   315.7    36.7   1
   7  16  11  -116.8    40.5   1
   7  16  12  -119.0    57.1   1
   7  16  13   122.9    67.8   1
   7  16  15  -203.9    99.7   1
   7  16  17  -447.4   163.1   1
   7  16  18  -148.0   193.4   1
   7  17 -13    -4.6    33.5   1
   7  17 -12   568.0    33.9   1
   7  17 -11   635.9    32.5   1
   7  17 -10   683.4    40.1   1
   7  17  -9   -50.3    32.8   1
   7  17  -8   440.7    32.1   1
   7  17  -6  1525.4    44.4   1
   7  17  -5   990.8    37.4   1
   7  17  -4   573.2    38.4   1
   7  17  -2   -52.8    32.4   1
   7  17  -1   213.6    35.4   1
   7  17   2    19.3    25.9   1
   7  17   3  1045.1    42.2   1
   7  17   4   596.8    24.3   1
   7  17   5   449.4    23.1   1
   7  17   6  1270.4    32.4   1
   7  17   8    87.8    29.0   1
   7  17   9     4.5    32.6   1
   7  17  11    -7.8    42.4   1
   7  17  12   -73.3    60.8   1
   7  17  13  1615.7    85.0   1
   7  17  14   128.0    88.7   1
   7  17  15  1684.4   119.8   1
   7  17  16  -267.2   139.1   1
   7  18 -13    17.9    34.1   1
   7  18 -12   785.9    36.6   1
   7  18 -11   254.5    31.0   1
   7  18 -10   551.6    40.1   1
   7  18  -9  4464.6    95.3   1
   7  18  -8  6464.1   109.4   1
   7  18  -6   694.7    39.5   1
   7  18  -5   250.5    35.2   1
   7  18  -4  4859.3   126.9   1
   7  18  -3   110.6    50.6   1
   7  18  -2  1115.9    61.2   1
   7  18  -1  1518.3    68.4   1
   7  18   2   877.0    45.2   1
   7  18   3   338.1    35.3   1
   7  18   4   303.9    32.1   1
   7  18   5   254.5    24.7   1
   7  18   6    97.7    24.1   1
   7  18   8   -40.9    29.2   1
   7  18   9    42.0    33.5   1
   7  18  10    92.7    39.7   1
   7  18  11    46.8    56.0   1
   7  18  12   157.3    67.0   1
   7  18  13   -20.2    77.5   1
   7  18  15   621.1   120.7   1
   7  18  16  -564.0   151.9   1
   7  18  18   -59.6   225.2   1
   7  19 -13   488.0    37.6   1
   7  19 -12  1430.5    45.2   1
   7  19 -11   440.3    32.6   1
   7  19 -10    -7.5    27.7   1
   7  19  -9  1052.2    47.2   1
   7  19  -8   -35.5    35.4   1
   7  19  -6    81.5    62.7   1
   7  19  -5  1153.0    57.3   1
   7  19  -4   230.5    45.9   1
   7  19  -3    -8.0    69.5   1
   7  19   2  1060.9    56.2   1
   7  19   3  1326.9    66.1   1
   7  19   4    -3.1    32.0   1
   7  19   5   611.0    30.8   1
   7  19   6   117.8    26.0   1
   7  19   8    24.6    31.7   1
   7  19   9   885.9    41.8   1
   7  19  10   491.2    44.3   1
   7  19  11   301.6    62.4   1
   7  19  12    80.3    71.0   1
   7  19  13   197.0    86.3   1
   7  19  15    20.6   133.0   1
   7  19  16    54.3   162.3   1
   7  19  17  -117.1   196.2   1
   7  20 -13   662.2    39.8   1
   7  20 -12  1437.8    45.7   1
   7  20 -11    61.1    30.8   1
   7  20 -10   285.1    31.4   1
   7  20  -9    36.5    40.8   1
   7  20  -8   231.3    42.9   1
   7  20   5   377.5    40.4   1
   7  20   6  1880.2    49.1   1
   7  20   7   108.1    32.9   1
   7  20   8   422.7    37.6   1
   7  20   9   178.1    42.4   1
   7  20  11    -3.9    65.7   1
   7  20  12   212.3    79.8   1
   7  20  13    89.0    95.3   1
   7  20  15   831.3   152.5   1
   7  20  16  -176.0   177.4   1
   7  20  17   223.6   214.1   1
   7  21 -13     1.9    39.5   1
   7  21 -12   547.6    39.1   1
   7  21 -11   230.5    34.3   1
   7  21 -10   163.0    32.2   1
   7  21  -9   120.0    46.7   1
   7  21   8  2329.8    59.0   1
   7  21   9   153.3    43.9   1
   7  21  10   186.0    50.7   1
   7  21  11  1574.1    86.6   1
   7  22 -13   185.2    44.5   1
   7  22 -12   -85.5    39.3   1
   7  22 -11   738.7    42.6   1
   7  22   5   -91.5    56.7   1
   7  22   6  2792.6   103.5   1
   7  22   7   381.1    49.1   1
   7  22   8   -86.4    53.4   1
   7  22   9   -20.9    48.7   1
   7  22  10  2064.8    91.7   1
   7  22  12   -88.5   101.8   1
   7  22  13  -188.4   122.9   1
   7  22  14   185.4   144.9   1
   7  22  16   830.8   212.6   1
   7  23 -13   180.3    47.7   1
   7  23 -12   -61.8    43.4   1
   7  23 -11   544.6    46.2   1
   7  23   5    -0.4    66.6   1
   7  23   6   -71.4    68.4   1
   7  23   8    80.1    50.0   1
   7  23  10  -152.8    83.6   1
   7  23  12   -37.6   115.5   1
   7  23  13  1976.2   149.5   1
   7  24 -13   483.4    55.8   1
   7  24 -12   -78.8    49.9   1
   7  24   8   646.4    79.0   1
   7  24   9   -13.4    63.0   1
   7  24  10   194.5    96.7   1
   7  24  11     4.0   109.7   1
   7  24  13   242.1   154.5   1
   7  25 -12   -90.4    56.2   1
   7  25   8   102.8    88.9   1
   7  25   9   251.6    71.4   1
   7  25  10  1281.5   121.0   1
   7  25  12  -138.6   141.7   1
   7  25  13   -94.8   169.0   1
   7  25  14   820.5   206.7   1
   7  26   8   414.8   105.7   1
   7  26   9    72.3   112.9   1
   7  26  10   -46.7   125.1   1
   7  26  11   317.2   143.1   1
   7  27 -13   -63.5    80.5   1
   7  27  10  -281.4   152.8   1
   7  27  11  -298.8   174.3   1
   8   0 -17    22.7    29.3   1
   8   0 -15     4.9    22.3   1
   8   0 -13    26.9    17.0   1
   8   0  11    22.7    29.9   1
   8   0  15   -10.0    62.5   1
   8   0  17   -29.6    77.2   1
   8   1 -23   493.9    77.8   1
   8   1 -22   525.1    64.0   1
   8   1 -21   -42.3    48.5   1
   8   1 -20     8.3    33.2   1
   8   1 -19    95.0    28.3   1
   8   1 -18    49.5    23.8   1
   8   1 -17  1077.4    34.0   1
   8   1 -16    76.3    24.5   1
   8   1 -15   195.2    17.5   1
   8   1 -14    22.2    13.6   1
   8   1 -13   434.0    16.9   1
   8   1 -12   230.6    13.9   1
   8   1 -11    38.3    12.7   1
   8   1 -10   798.8    18.3   1
   8   1  -9   210.4    14.7   1
   8   1  -7   156.9    13.2   1
   8   1  -6  4329.7    66.4   1
   8   1  -5    39.7    13.6   1
   8   1  -4  1200.2    25.7   1
   8   1  -3    12.0    15.7   1
   8   1  -2   115.5    13.0   1
   8   1   1   555.7    16.3   1
   8   1   2    73.3    15.2   1
   8   1   3    37.9    19.5   1
   8   1   4    -5.7    20.5   1
   8   1   5  2486.4    53.3   1
   8   1   6  4129.8    67.8   1
   8   1   8   846.7    32.7   1
   8   1   9   -23.3    21.5   1
   8   1  10  6167.7    51.3   1
   8   1  11  1778.8    30.0   1
   8   1  12   655.6    24.7   1
   8   1  13    17.6    26.7   1
   8   1  14  -126.2    31.2   1
   8   1  15   571.5    54.6   1
   8   1  16   266.4    59.0   1
   8   1  17    31.3    54.3   1
   8   1  18   -29.0    70.8   1
   8   1  19    43.4    91.5   1
   8   1  20  -127.5   114.8   1
   8   2 -23   217.6    63.3   1
   8   2 -21   470.0    41.0   1
   8   2 -19   633.8    32.5   1
   8   2 -17  1359.7    35.1   1
   8   2 -15   455.0    19.4   1
   8   2 -13  1273.2    25.2   1
   8   2 -11    13.6    12.7   1
   8   2  -9   253.6    14.5   1
   8   2  -7   458.8    16.7   1
   8   2  -3    -3.9    15.4   1
   8   2  -1    30.5    13.9   1
   8   2   1   104.3    13.6   1
   8   2   3   -19.5    18.6   1
   8   2   5   777.5    28.4   1
   8   2   7    46.9    23.5   1
   8   2   9   763.8    23.8   1
   8   2  11   912.8    24.1   1
   8   2  13    11.0    27.5   1
   8   2  15   -16.3    45.2   1
   8   2  17     2.6    62.7   1
   8   2  19   -78.6   106.2   1
   8   3 -22    -5.4    47.9   1
   8   3 -21   186.2    41.9   1
   8   3 -20   242.6    33.3   1
   8   3 -19   188.0    28.9   1
   8   3 -18    53.0    25.7   1
   8   3 -17   552.4    26.5   1
   8   3 -15   -15.0    19.7   1
   8   3 -14   288.0    18.3   1
   8   3 -13   505.3    19.0   1
   8   3 -12    71.4    12.4   1
   8   3 -11   280.4    14.9   1
   8   3 -10   195.2    13.2   1
   8   3  -9   233.3    15.4   1
   8   3  -7  1354.8    27.0   1
   8   3  -6   663.3    18.5   1
   8   3  -5   875.2    22.2   1
   8   3  -3  1354.5    24.9   1
   8   3  -2    18.4    13.0   1
   8   3  -1    42.4    14.8   1
   8   3   1    28.2    12.7   1
   8   3   2    22.5    14.0   1
   8   3   6   293.2    26.5   1
   8   3   7   141.8    18.1   1
   8   3   8    63.7    23.7   1
   8   3   9    48.3    18.2   1
   8   3  10   560.6    22.5   1
   8   3  11     8.3    24.0   1
   8   3  12   467.5    32.3   1
   8   3  13   280.4    31.9   1
   8   3  14   125.6    39.1   1
   8   3  15   -21.6    46.8   1
   8   3  16   277.4    62.8   1
   8   3  17   256.1    65.7   1
   8   3  18   -42.3    82.8   1
   8   3  19   -79.1   120.2   1
   8   3  20  -196.4   153.0   1
   8   4 -21   432.1    42.6   1
   8   4 -19   222.9    29.3   1
   8   4 -17    49.3    23.7   1
   8   4 -15   260.7    26.6   1
   8   4 -13   450.5    18.7   1
   8   4 -11   484.8    18.3   1
   8   4  -9   244.5    13.6   1
   8   4  -7   582.5    16.7   1
   8   4  -5   689.4    18.5   1
   8   4  -3  1702.0    28.3   1
   8   4  -1   606.7    17.6   1
   8   4   1  3461.2    44.6   1
   8   4   3   818.2    27.4   1
   8   4   7  1610.6    35.5   1
   8   4   9   -18.2    18.7   1
   8   4  11   693.8    30.0   1
   8   4  13   723.4    47.7   1
   8   4  15   249.4    57.2   1
   8   4  17   509.6    77.6   1
   8   4  19    58.4   122.5   1
   8   5 -20  1454.6    48.3   1
   8   5 -19   -38.0    30.8   1
   8   5 -18     1.1    27.8   1
   8   5 -17    35.8    26.1   1
   8   5 -16  1326.6    39.6   1
   8   5 -15   720.6    33.7   1
   8   5 -14   987.4    32.7   1
   8   5 -13   287.1    18.6   1
   8   5 -12   556.2    22.3   1
   8   5 -11  1423.8    31.0   1
   8   5 -10     2.7    11.3   1
   8   5  -9   106.6    12.6   1
   8   5  -7   153.3    13.3   1
   8   5  -6    72.8    15.1   1
   8   5  -5    36.1    12.7   1
   8   5  -3    42.7    12.7   1
   8   5  -2    20.8    13.1   1
   8   5  -1   648.7    18.9   1
   8   5   1   403.2    16.6   1
   8   5   2   258.8    18.4   1
   8   5   3   431.5    22.3   1
   8   5   4   164.1    24.3   1
   8   5   6   547.0    24.0   1
   8   5   7    74.9    20.0   1
   8   5   8    79.8    37.6   1
   8   5   9   537.0    25.6   1
   8   5  10    10.7    25.6   1
   8   5  11   945.1    49.0   1
   8   5  12   -13.7    31.8   1
   8   5  13   107.4    39.1   1
   8   5  14   -37.9    47.4   1
   8   5  15   628.1    77.5   1
   8   5  16    76.7    67.3   1
   8   5  17   -32.6    79.9   1
   8   5  18  -100.4   100.2   1
   8   5  20   884.0   171.3   1
   8   6 -19   -31.0    31.4   1
   8   6 -17   -11.5    27.5   1
   8   6 -15   618.4    34.9   1
   8   6 -13    41.3    20.9   1
   8   6 -11   196.0    17.0   1
   8   6  -9   158.7    14.5   1
   8   6  -7   109.2    12.0   1
   8   6  -5  4163.1    62.6   1
   8   6  -3    93.3    11.7   1
   8   6  -1   159.3    14.6   1
   8   6   1  2044.4    38.8   1
   8   6   7  1421.2    32.1   1
   8   6   9    -3.6    25.8   1
   8   6  11    -9.5    32.3   1
   8   6  13  1314.7    49.6   1
   8   6  15   -55.5    67.7   1
   8   6  17   153.8    84.9   1
   8   6  19   135.6   138.1   1
   8   7 -20   357.0    39.4   1
   8   7 -19    99.5    34.6   1
   8   7 -18  1380.7    42.6   1
   8   7 -16   298.2    32.0   1
   8   7 -15  7152.7   162.7   1
   8   7 -14  1121.5    34.5   1
   8   7 -13   357.6    27.0   1
   8   7 -12   915.3    31.4   1
   8   7 -11     4.5    17.3   1
   8   7 -10    73.3    17.4   1
   8   7  -9  1336.2    37.0   1
   8   7  -7    17.9    16.5   1
   8   7  -6   104.9    11.5   1
   8   7  -5  1434.2    28.3   1
   8   7  -4  7192.3   100.9   1
   8   7  -3    17.5    10.7   1
   8   7  -2  1189.3    28.2   1
   8   7   1   181.4    13.8   1
   8   7   2   174.3    17.6   1
   8   7   3   -30.8    18.2   1
   8   7   4  2392.5    46.9   1
   8   7   5  1046.0    38.0   1
   8   7   6   780.4    31.8   1
   8   7   9   191.5    39.1   1
   8   7  10   -19.1    29.7   1
   8   7  11   112.0    35.1   1
   8   7  12   107.2    39.1   1
   8   7  13   -82.5    46.9   1
   8   7  14   596.5    60.2   1
   8   7  15   133.3    86.8   1
   8   7  16   -21.5    70.8   1
   8   7  17   173.2    86.9   1
   8   7  18  -155.2   105.2   1
   8   7  19    -5.8   137.2   1
   8   7  20  -360.1   171.8   1
   8   8 -15  1860.7    59.6   1
   8   8 -13   540.6    32.7   1
   8   8 -11  1500.5    35.6   1
   8   8  -9   241.5    25.5   1
   8   8  -7   -18.4    14.7   1
   8   8  -5   243.6    12.6   1
   8   8  -3    75.8    11.8   1
   8   8  -1  2239.1    39.2   1
   8   8   1  1232.5    25.6   1
   8   8   3  4169.3    83.4   1
   8   8   5  2162.5    62.4   1
   8   8   9   125.5    46.8   1
   8   8  13   112.1    58.1   1
   8   9 -19   222.7    38.8   1
   8   9 -18   -22.0    35.1   1
   8   9 -14   322.4    36.4   1
   8   9 -13   222.3    32.2   1
   8   9 -12    26.5    26.2   1
   8   9 -11   281.5    25.3   1
   8   9 -10    75.5    21.7   1
   8   9  -9  1559.4    40.0   1
   8   9  -7     5.6    16.8   1
   8   9  -6   171.4    14.2   1
   8   9  -5    75.4    12.3   1
   8   9  -4   120.7    12.3   1
   8   9  -3  1346.7    26.6   1
   8   9  -2   106.7    12.6   1
   8   9  -1  4186.6    64.9   1
   8   9   1     2.4    15.1   1
   8   9   2  1421.1    25.3   1
   8   9   3   228.1    21.2   1
   8   9   4  1506.3    37.8   1
   8   9   5   335.5    29.2   1
   8   9   6  3160.5    68.8   1
   8   9  10   540.1    37.4   1
   8   9  11  1067.7    44.7   1
   8   9  12   -59.5    44.4   1
   8   9  13  1553.1    63.6   1
   8   9  14  2629.6    74.3   1
   8   9  18    13.6   113.7   1
   8   9  19   880.7   152.1   1
   8  10 -17   379.4    37.8   1
   8  10 -15   848.4    40.2   1
   8  10 -13   409.6    36.6   1
   8  10 -11  1661.2    72.9   1
   8  10  -9   167.6    20.1   1
   8  10  -7    10.7    14.3   1
   8  10  -5     5.8    13.5   1
   8  10  -3   155.7    14.2   1
   8  10  -1    27.3    14.4   1
   8  10   1   585.0    18.2   1
   8  10   3  4743.7    86.0   1
   8  10   5    -9.6    26.0   1
   8  10   7    64.6    26.1   1
   8  10   9   125.2    33.1   1
   8  10  11    81.3    39.1   1
   8  10  13   465.7    57.0   1
   8  10  15    78.8    68.3   1
   8  10  17    97.7    98.8   1
   8  11 -18   221.0    39.7   1
   8  11 -17  1919.8    53.6   1
   8  11 -15   301.3    38.8   1
   8  11 -12  1270.1    43.6   1
   8  11 -11   446.7    33.8   1
   8  11 -10   894.3    31.6   1
   8  11  -9   733.7    29.5   1
   8  11  -7    45.8    15.4   1
   8  11  -6    -2.8    16.2   1
   8  11  -5    36.9    14.4   1
   8  11  -4  5623.8    97.9   1
   8  11  -3   668.2    19.6   1
   8  11  -2  2535.1    37.4   1
   8  11  -1   681.2    20.1   1
   8  11   1  3476.4    59.5   1
   8  11   2   596.1    18.5   1
   8  11   4   225.8    20.5   1
   8  11   5  3708.9   138.0   1
   8  11   6   256.6    25.2   1
   8  11   7   250.5    28.2   1
   8  11   9   -50.3    32.9   1
   8  11  10   409.1    39.3   1
   8  11  11   295.1    42.4   1
   8  11  12     6.6    49.0   1
   8  11  13   -68.4    58.1   1
   8  11  14   255.9    62.0   1
   8  11  15  1154.8    77.4   1
   8  11  17   317.3   102.9   1
   8  11  18   367.3   166.2   1
   8  12 -17   -58.2    39.4   1
   8  12 -15   225.7    42.2   1
   8  12 -13   125.3    40.7   1
   8  12 -11   -43.1    30.9   1
   8  12  -9  1100.2    43.1   1
   8  12  -7   364.7    26.4   1
   8  12  -5  2214.7    36.0   1
   8  12  -3  1146.5    27.2   1
   8  12  -1   256.2    13.0   1
   8  12   1   933.2    27.9   1
   8  12   3   689.9    23.5   1
   8  12   5   630.8    26.7   1
   8  12   7  1316.4    37.3   1
   8  12   9   677.3    37.4   1
   8  12  11   145.8    45.2   1
   8  12  13   -75.1    53.5   1
   8  12  15   777.2    79.3   1
   8  13 -17   296.9    43.2   1
   8  13 -15   -66.7    44.3   1
   8  13 -14   520.8    42.8   1
   8  13 -13    70.9    36.5   1
   8  13 -12   354.1    40.4   1
   8  13 -11   754.6    43.2   1
   8  13 -10  3207.8    68.8   1
   8  13  -9  1127.4    32.3   1
   8  13  -7  5079.6    81.3   1
   8  13  -6  5469.1    76.6   1
   8  13  -5    77.2    24.1   1
   8  13  -4    39.4    17.7   1
   8  13  -3   569.0    19.9   1
   8  13  -2    -5.3    15.1   1
   8  13  -1  5392.0    72.3   1
   8  13   0   218.5    20.8   1
   8  13   1   960.7    25.2   1
   8  13   2  1711.9    32.8   1
   8  13   3   915.4    28.4   1
   8  13   4   855.3    29.2   1
   8  13   5    54.4    23.3   1
   8  13   6  1227.1    38.9   1
   8  13   7   761.6    33.7   1
   8  13   9   247.4    35.7   1
   8  13  10    60.9    38.7   1
   8  13  12   325.1    49.2   1
   8  13  14   -54.8    67.9   1
   8  13  15   344.4    78.7   1
   8  13  17   488.5   146.5   1
   8  13  18  -208.9   192.5   1
   8  14 -17   -73.7    42.9   1
   8  14 -15   259.2    39.8   1
   8  14 -13   162.5    38.6   1
   8  14 -11   675.5    36.7   1
   8  14  -9   815.5    33.5   1
   8  14  -7   -23.1    22.6   1
   8  14  -5 13666.6   190.7   1
   8  14  -3     0.2    16.2   1
   8  14  -1   511.9    28.5   1
   8  14   1   460.3    20.5   1
   8  14   3   319.6    19.8   1
   8  14   5   -30.5    21.5   1
   8  14   7   -12.0    27.6   1
   8  14   9   909.4    41.3   1
   8  14  11  1150.3    56.3   1
   8  14  13   470.5    61.0   1
   8  14  15    85.9    84.4   1
   8  14  17  -499.1   162.1   1
   8  15 -14   417.8    47.9   1
   8  15 -13  1002.8    50.6   1
   8  15 -11   122.9    35.4   1
   8  15 -10   113.7    32.6   1
   8  15  -9   448.7    37.9   1
   8  15  -7   -38.5    31.6   1
   8  15  -6    18.9    18.6   1
   8  15  -5   443.7    24.0   1
   8  15  -3   885.8    33.5   1
   8  15  -2  5058.8    81.8   1
   8  15  -1  3717.1    87.2   1
   8  15   1  2904.2    63.8   1
   8  15   2   726.8    26.0   1
   8  15   3   505.7    21.0   1
   8  15   4   119.7    25.9   1
   8  15   5   138.5    24.5   1
   8  15   6   798.6    31.4   1
   8  15   7  1141.3    42.9   1
   8  15   9   543.1    40.4   1
   8  15  10   224.2    45.9   1
   8  15  11   276.9    46.7   1
   8  15  12   339.3    55.8   1
   8  15  13  1251.2    71.5   1
   8  15  14   245.5    76.3   1
   8  15  17   337.2   179.5   1
   8  15  18  -463.3   211.6   1
   8  16 -17   -41.0    46.2   1
   8  16 -15   161.3    41.5   1
   8  16 -13    86.8    44.0   1
   8  16  -9     7.2    31.0   1
   8  16  -7   174.3    23.4   1
   8  16  -5  1938.7    66.3   1
   8  16  -3   941.6    39.3   1
   8  16   1   248.3    23.4   1
   8  16   3   478.5    25.8   1
   8  16   5   137.9    27.4   1
   8  16   9   246.5    41.0   1
   8  16  11  1536.2    59.9   1
   8  17 -15   250.5    41.0   1
   8  17 -14   -41.0    37.1   1
   8  17 -13   114.3    47.3   1
   8  17 -12   361.2    46.4   1
   8  17 -11     4.8    39.7   1
   8  17 -10  1887.2    49.0   1
   8  17  -9   187.0    29.9   1
   8  17  -7   544.8    30.6   1
   8  17  -6   537.5    39.4   1
   8  17  -5   672.6    40.5   1
   8  17  -2  4593.9   118.0   1
   8  17  -1   422.7    37.7   1
   8  17   1   -33.1    26.0   1
   8  17   2   299.1    25.8   1
   8  17   3    49.8    24.3   1
   8  17   4  1505.8    35.2   1
   8  17   5   475.2    28.8   1
   8  17   6  1090.9    40.6   1
   8  17   7   111.4    32.4   1
   8  17   9   315.2    49.9   1
   8  17  10   627.8    62.1   1
   8  17  11   679.7    54.7   1
   8  17  12  1492.7    71.5   1
   8  17  13   567.1    72.9   1
   8  17  14   131.1   109.3   1
   8  17  15     8.7   129.3   1
   8  17  17  -532.6   208.7   1
   8  18 -15  3112.4    74.0   1
   8  18 -13     8.6    49.2   1
   8  18 -11   209.1    45.0   1
   8  18  -9   151.3    30.7   1
   8  18  -7   161.1    37.5   1
   8  18  -5   744.9    47.8   1
   8  18  -1    53.5    40.7   1
   8  18   3    -1.1    28.1   1
   8  18   5   865.8    34.6   1
   8  18   7   -20.0    31.0   1
   8  18   9   -33.8    40.6   1
   8  18  11   255.1    57.3   1
   8  18  15  -226.1   143.3   1
   8  18  17  -605.1   221.8   1
   8  19 -15  3823.5    86.2   1
   8  19 -14   875.4    46.5   1
   8  19 -13   685.2    41.0   1
   8  19 -11   108.2    46.9   1
   8  19 -10   676.9    48.3   1
   8  19  -9   135.6    32.8   1
   8  19  -6    84.4    45.7   1
   8  19  -5    92.5    46.0   1
   8  19   2   902.4    60.4   1
   8  19   4   481.0    37.4   1
   8  19   5    -5.0    31.5   1
   8  19   6    -8.6    29.9   1
   8  19   7  2458.5    55.9   1
   8  19   9    42.7    44.4   1
   8  19  10    70.4    52.5   1
   8  19  12   -49.6    68.1   1
   8  19  13  2050.1   121.4   1
   8  19  14  -185.1   128.0   1
   8  19  15   234.2   164.5   1
   8  20 -15    98.1    48.7   1
   8  20 -13   289.3    40.1   1
   8  20 -11   127.5    53.0   1
   8  20  -3   438.3   136.2   1
   8  20   5  1560.8    49.9   1
   8  20   7   254.6    38.4   1
   8  20   9   747.6    52.6   1
   8  20  11   230.5    65.4   1
   8  20  13  -246.6   115.0   1
   8  20  15   708.6   176.6   1
   8  21 -15   339.8    54.5   1
   8  21 -14   -61.4    46.5   1
   8  21 -13    96.4    42.0   1
   8  21   6    40.0    36.5   1
   8  21   7   978.8    47.6   1
   8  21   8   -37.8    45.9   1
   8  21   9   -88.6    50.7   1
   8  21  10  1226.8    69.4   1
   8  21  11  -189.0    73.7   1
   8  21  12   255.2    81.4   1
   8  21  14   854.5   161.1   1
   8  21  15     9.1   195.2   1
   8  22 -15   111.5    55.5   1
   8  22 -13   264.6    49.2   1
   8  22 -11   198.0    42.0   1
   8  22   7   146.5    47.1   1
   8  22   9    83.0    58.3   1
   8  22  13  -198.5   145.9   1
   8  22  15   258.7   214.8   1
   8  23 -14   162.1    55.8   1
   8  23 -13   237.7    50.9   1
   8  23 -12     5.1    48.3   1
   8  23   8   145.3    59.3   1
   8  23   9   -75.5    64.4   1
   8  23  10   652.7    76.4   1
   8  23  11    79.2    83.7   1
   8  23  13  -133.8   162.6   1
   8  23  14  1575.9   205.5   1
   8  24 -15   263.0    68.3   1
   8  24 -13   603.3    61.4   1
   8  24  11   565.2    99.1   1
   8  25 -15   267.4    76.9   1
   8  25 -14   387.4    69.4   1
   8  25  10   200.1    98.1   1
   8  25  11  -227.2   108.6   1
   8  26   9   843.7   105.3   1
   8  26  11   -21.6   124.5   1
   8  27   9  -106.6   114.4   1
   8  27  10  1438.9   139.9   1
   9   0 -17    -9.4    32.8   1
   9   0 -16   325.3    26.2   1
   9   0 -14   527.2    26.7   1
   9   0 -13    11.8    19.0   1
   9   0 -11    21.9    18.0   1
   9   0 -10   131.8    18.1   1
   9   0   8    93.6    25.8   1
   9   0  10   -39.5    31.8   1
   9   0  14   -90.9    63.1   1
   9   0  16  1881.7   119.0   1
   9   0  17     8.2   126.3   1
   9   0  19   -96.1   154.3   1
   9   1 -22  1662.8    66.7   1
   9   1 -21   123.3    43.7   1
   9   1 -20   130.8    36.8   1
   9   1 -19    95.8    38.6   1
   9   1 -18  1825.0    50.9   1
   9   1 -17   203.5    28.2   1
   9   1 -16    50.6    18.1   1
   9   1 -15  2189.5    36.6   1
   9   1 -13   943.6    20.9   1
   9   1 -12   814.5    18.3   1
   9   1 -11   180.2    13.9   1
   9   1 -10    26.2    12.4   1
   9   1  -7   338.8    15.8   1
   9   1  -6    41.9    12.3   1
   9   1  -4    20.4    14.6   1
   9   1  -3   128.4    16.2   1
   9   1  -2    14.6    14.7   1
   9   1  -1    61.4    16.1   1
   9   1   2  3874.4    61.5   1
   9   1   3   868.8    34.9   1
   9   1   5   130.0    28.6   1
   9   1   6    25.6    19.5   1
   9   1   7   904.5    27.3   1
   9   1   8  1041.3    35.7   1
   9   1  10   291.3    23.5   1
   9   1  11     6.9    25.1   1
   9   1  12  -108.6    25.1   1
   9   1  13   307.2    31.3   1
   9   1  14   -75.2    35.5   1
   9   1  15   300.1    49.5   1
   9   1  16   -26.5    71.9   1
   9   1  17  1372.1   100.0   1
   9   1  18   298.5   121.6   1
   9   1  19   176.2   110.9   1
   9   2 -24    92.2    77.9   1
   9   2 -23  -104.2    60.7   1
   9   2 -22   -88.8    51.9   1
   9   2 -21  3011.7    72.6   1
   9   2 -20    67.2    36.1   1
   9   2 -19  1387.9    44.6   1
   9   2 -17  1223.0    35.5   1
   9   2 -16   163.1    19.7   1
   9   2 -15    12.2    18.2   1
   9   2 -14   150.7    16.8   1
   9   2 -13  1298.1    22.1   1
   9   2 -12  5354.8    69.7   1
   9   2 -11   792.8    21.0   1
   9   2 -10  2500.0    39.1   1
   9   2  -9   642.0    27.4   1
   9   2  -8   424.1    16.5   1
   9   2  -7     0.8    13.5   1
   9   2  -6   148.9    16.3   1
   9   2  -5   346.1    18.1   1
   9   2  -4   692.0    18.8   1
   9   2  -3  1650.3    28.9   1
   9   2  -2   528.2    25.5   1
   9   2  -1  1098.1    24.2   1
   9   2   1    36.9    24.7   1
   9   2   2  1703.2    45.3   1
   9   2   3   507.6    24.2   1
   9   2   4   450.0    25.4   1
   9   2   6    46.6    19.8   1
   9   2   7   185.8    25.7   1
   9   2   8  2721.1    39.9   1
   9   2  10   728.9    23.9   1
   9   2  11   -38.2    22.4   1
   9   2  12   647.1    30.9   1
   9   2  13   378.3    32.0   1
   9   2  14  1263.1    47.7   1
   9   2  15   -63.9    49.2   1
   9   2  16   -11.1    71.6   1
   9   2  17    44.5    91.3   1
   9   2  18  1046.3   107.7   1
   9   2  19    16.1   133.2   1
   9   3 -23   209.2    62.2   1
   9   3 -22  -125.0    51.7   1
   9   3 -20   568.0    41.1   1
   9   3 -19   131.1    30.9   1
   9   3 -17  1124.6    41.1   1
   9   3 -16  1798.0    38.5   1
   9   3 -14    69.7    17.2   1
   9   3 -13  1583.8    28.1   1
   9   3 -11   129.6    13.0   1
   9   3 -10   171.8    12.8   1
   9   3  -8    10.1    14.1   1
   9   3  -7  1923.1    31.0   1
   9   3  -5   185.6    13.0   1
   9   3  -4    20.2    12.9   1
   9   3  -2  1834.5    34.7   1
   9   3  -1   257.3    15.2   1
   9   3   1    11.0    15.7   1
   9   3   2   117.0    18.3   1
   9   3   4   788.3    31.1   1
   9   3   5   329.6    26.7   1
   9   3   7     6.3    20.9   1
   9   3   8    46.8    18.3   1
   9   3  10   202.9    22.5   1
   9   3  11    48.7    23.0   1
   9   3  13   142.3    34.3   1
   9   3  14   -58.9    41.2   1
   9   3  16     0.5    74.4   1
   9   3  17  -205.1    96.5   1
   9   3  19   360.4   136.8   1
   9   4 -25  -307.6    96.5   1
   9   4 -23   441.2    66.7   1
   9   4 -22    41.4    51.5   1
   9   4 -21  2012.3    63.7   1
   9   4 -20    49.8    37.1   1
   9   4 -19   280.4    33.6   1
   9   4 -18   184.7    36.7   1
   9   4 -17    56.2    31.4   1
   9   4 -16   121.4    24.3   1
   9   4 -15   113.1    21.9   1
   9   4 -14   312.0    20.1   1
   9   4 -13     1.2    15.1   1
   9   4 -12   100.8    13.8   1
   9   4 -11  3524.3    49.3   1
   9   4 -10   801.1    18.3   1
   9   4  -8  3184.2    39.7   1
   9   4  -7    -1.9    13.2   1
   9   4  -6   366.7    16.7   1
   9   4  -5   327.2    17.8   1
   9   4  -4   202.9    14.4   1
   9   4  -3   578.7    20.8   1
   9   4  -2    33.5    12.8   1
   9   4  -1   500.8    15.9   1
   9   4   1   537.0    21.3   1
   9   4   2   150.0    22.4   1
   9   4   3   476.1    24.7   1
   9   4   4     7.5    30.0   1
   9   4   6  1509.1    34.6   1
   9   4   7   953.7    33.3   1
   9   4   8   662.0    24.0   1
   9   4  10   235.0    23.9   1
   9   4  11   720.7    30.2   1
   9   4  12   -70.1    32.7   1
   9   4  13   -30.1    47.2   1
   9   4  14  2142.1    91.0   1
   9   4  15    40.3    70.1   1
   9   4  16  -184.9    90.2   1
   9   4  17  -160.5   117.3   1
   9   4  19   724.8   146.8   1
   9   5 -24  -200.8    75.8   1
   9   5 -22    -9.8    54.4   1
   9   5 -21  1050.8    53.4   1
   9   5 -20   193.7    39.0   1
   9   5 -19   667.2    38.0   1
   9   5 -17  1086.9    44.5   1
   9   5 -16   -12.9    28.5   1
   9   5 -15  1631.5    39.4   1
   9   5 -14    20.0    20.9   1
   9   5 -13   612.1    28.6   1
   9   5 -12   151.1    16.5   1
   9   5 -11    23.3    14.5   1
   9   5 -10   111.7    13.1   1
   9   5  -9   309.9    25.0   1
   9   5  -8   463.5    14.5   1
   9   5  -7     8.2    14.3   1
   9   5  -6   441.6    18.1   1
   9   5  -5    86.0    14.1   1
   9   5  -4  2174.6    46.9   1
   9   5  -3   925.7    22.1   1
   9   5  -2   168.9    14.9   1
   9   5  -1   -14.0    15.2   1
   9   5   1   394.7    18.2   1
   9   5   2   239.9    20.1   1
   9   5   3  2447.3    46.2   1
   9   5   5    67.6    27.0   1
   9   5   6    -2.5    19.2   1
   9   5   7   200.0    21.1   1
   9   5  10   644.2    31.3   1
   9   5  11   356.8    31.3   1
   9   5  12  2662.8    62.5   1
   9   5  14    43.9    56.9   1
   9   5  15   -98.3    72.3   1
   9   5  16   -88.5    93.2   1
   9   5  17    47.6   121.0   1
   9   5  18   107.0   120.8   1
   9   5  19   253.2   161.4   1
   9   6 -23   968.4    71.5   1
   9   6 -22   -60.4    53.7   1
   9   6 -20  2208.7    63.3   1
   9   6 -19   751.8    39.9   1
   9   6 -17   -22.9    35.4   1
   9   6 -16     9.6    31.7   1
   9   6 -14    46.9    24.0   1
   9   6 -13   436.6    23.8   1
   9   6 -11  1859.5    35.2   1
   9   6 -10   261.2    19.2   1
   9   6  -8   709.5    18.4   1
   9   6  -7    54.8    13.0   1
   9   6  -5   282.7    16.5   1
   9   6  -4   758.6    17.9   1
   9   6  -2    49.0    14.9   1
   9   6  -1     8.1    15.7   1
   9   6   1   452.0    19.3   1
   9   6   2   305.0    19.6   1
   9   6   4   576.6    27.2   1
   9   6   5    35.3    21.8   1
   9   6   7  1134.0    31.0   1
   9   6   8   453.8    27.6   1
   9   6  10   406.3    31.4   1
   9   6  11   337.1    38.7   1
   9   6  13   371.0    57.8   1
   9   6  14   184.2    60.6   1
   9   6  16   -73.0   102.9   1
   9   6  19  -365.5   164.6   1
   9   7 -23  -110.9    66.7   1
   9   7 -22    83.5    56.3   1
   9   7 -21   829.6    54.6   1
   9   7 -19   361.7    38.1   1
   9   7 -17   -42.1    38.7   1
   9   7 -16   -22.6    33.6   1
   9   7 -15   121.7    27.8   1
   9   7 -14    53.0    25.9   1
   9   7 -13  1134.1    34.5   1
   9   7 -12   157.3    20.1   1
   9   7 -11  1350.7    43.5   1
   9   7 -10   743.8    26.5   1
   9   7  -8    23.5    13.9   1
   9   7  -7  3470.0    61.2   1
   9   7  -6     1.8    11.7   1
   9   7  -5  1748.1    32.5   1
   9   7  -4   625.0    17.2   1
   9   7  -3   381.8    16.2   1
   9   7  -2  1249.0    27.0   1
   9   7  -1   577.2    22.2   1
   9   7   1   -20.9    21.2   1
   9   7   2   304.3    19.8   1
   9   7   3    88.4    20.9   1
   9   7   4    12.9    23.6   1
   9   7   5   271.9    23.6   1
   9   7   6  1215.4    41.7   1
   9   7   7   276.0    34.5   1
   9   7   8   -50.4    28.5   1
   9   7   9   -29.9    32.4   1
   9   7  10    88.2    33.5   1
   9   7  11   105.7    39.5   1
   9   7  12  2178.7    68.0   1
   9   7  13   296.5    82.7   1
   9   7  14  2675.4    94.0   1
   9   7  15  -162.2    79.7   1
   9   7  17  -125.2   105.1   1
   9   7  19  -425.9   170.7   1
   9   8 -22   -84.8    58.2   1
   9   8 -21   309.7    52.7   1
   9   8 -16    83.1    35.1   1
   9   8 -15   541.8    36.8   1
   9   8 -14    23.7    29.8   1
   9   8 -13   747.1    32.1   1
   9   8 -12  4624.7    85.5   1
   9   8 -11    10.6    23.3   1
   9   8 -10  1366.8    51.3   1
   9   8  -8   971.6    24.7   1
   9   8  -7   558.0    16.9   1
   9   8  -6   319.0    14.4   1
   9   8  -5   533.9    17.6   1
   9   8  -4  4703.9    67.1   1
   9   8  -3  9623.9   160.4   1
   9   8  -2  1518.7    25.3   1
   9   8   1   217.5    17.7   1
   9   8   2    15.0    18.6   1
   9   8   3   346.6    22.9   1
   9   8   4    -7.2    21.9   1
   9   8   5  2720.6    50.1   1
   9   8   6   -17.6    26.2   1
   9   8   7   -14.6    27.6   1
   9   8  10   934.3    41.7   1
   9   8  11   -24.3    41.3   1
   9   8  12  -102.6    51.7   1
   9   8  13  1447.6    75.5   1
   9   8  14  1135.9    78.5   1
   9   8  15   596.3    90.6   1
   9   8  16   -38.8   109.3   1
   9   8  18  -134.8   141.4   1
   9   8  19   470.6   179.0   1
   9   9 -13  2779.0    66.2   1
   9   9 -11  6390.8   192.5   1
   9   9 -10  4784.8   151.0   1
   9   9  -8   271.6    25.8   1
   9   9  -7   190.8    21.5   1
   9   9  -5  2740.4    44.1   1
   9   9  -4  1177.5    24.3   1
   9   9  -2   702.8    19.5   1
   9   9  -1    59.0    13.9   1
   9   9   1    38.5    16.5   1
   9   9   2  2664.1    48.0   1
   9   9  13    39.0    86.5   1
   9  10 -21  -130.4    56.8   1
   9  10 -20   -96.6    50.9   1
   9  10 -16    -9.0    40.9   1
   9  10 -15   -37.3    39.7   1
   9  10 -14    15.7    35.5   1
   9  10 -13   723.4    35.3   1
   9  10 -12   522.1    32.3   1
   9  10 -11  1107.3    34.0   1
   9  10 -10  2963.9    53.6   1
   9  10  -8   790.1    26.4   1
   9  10  -7   156.9    16.0   1
   9  10  -6   309.6    20.3   1
   9  10  -5   991.8    22.6   1
   9  10  -4  2116.2    32.1   1
   9  10  -3  3177.7    49.6   1
   9  10  -2   186.6    14.5   1
   9  10  -1   101.9    16.8   1
   9  10   1   169.3    16.8   1
   9  10   2   131.9    16.5   1
   9  10   3   504.4    24.5   1
   9  10   4   863.1    31.0   1
   9  10   5   554.6    26.8   1
   9  10   6    34.3    27.0   1
   9  10   7    68.2    38.1   1
   9  10   8   367.7    42.3   1
   9  10  10   972.1    47.2   1
   9  10  11  1424.2    58.6   1
   9  10  12   -42.1    56.9   1
   9  10  13   884.2    73.0   1
   9  10  14   593.8    83.0   1
   9  10  15  2561.8   120.6   1
   9  10  17   538.2   120.4   1
   9  11 -21   -68.5    58.9   1
   9  11 -19   186.7    46.6   1
   9  11 -16  1808.8    61.8   1
   9  11 -15    24.8    42.9   1
   9  11 -14    77.3    39.2   1
   9  11 -13   746.0    39.2   1
   9  11 -12  2733.7    91.5   1
   9  11 -11   732.3    34.1   1
   9  11 -10   351.6    25.0   1
   9  11  -8    -2.6    22.6   1
   9  11  -7   171.0    20.9   1
   9  11  -6  1166.7    30.0   1
   9  11  -5  3720.1    47.9   1
   9  11  -4   -10.1    14.7   1
   9  11  -3   202.5    18.8   1
   9  11  -2  3101.9    44.1   1
   9  11  -1  5763.9    85.3   1
   9  11   1  1788.0    29.5   1
   9  11   2  1600.2    37.5   1
   9  11   3  1742.8    38.4   1
   9  11   4  3202.4    66.0   1
   9  11   5    21.1    24.0   1
   9  11   6    39.0    27.7   1
   9  11   8   -69.4    33.2   1
   9  11  10   412.9    44.4   1
   9  11  11  1125.9    58.7   1
   9  11  12   418.0    62.5   1
   9  11  13    -1.6    72.2   1
   9  11  14   966.1    88.3   1
   9  11  15  -232.4   105.5   1
   9  11  17   -95.2   128.4   1
   9  12 -20   368.9    58.4   1
   9  12 -17    -2.4    49.8   1
   9  12 -16   333.7    52.6   1
   9  12 -14   108.8    42.5   1
   9  12 -13   -72.2    37.1   1
   9  12 -11     4.9    28.4   1
   9  12 -10   430.2    31.2   1
   9  12  -8   209.7    21.3   1
   9  12  -7   357.3    26.0   1
   9  12  -5    79.0    17.5   1
   9  12  -4  1408.5    32.1   1
   9  12  -2   182.1    15.9   1
   9  12  -1    14.6    13.6   1
   9  12   1   431.0    17.2   1
   9  12   2    81.8    18.0   1
   9  12   4  1848.5    40.4   1
   9  12   5   730.0    32.2   1
   9  12   7  -102.3    29.9   1
   9  12   8   653.7    38.4   1
   9  12  10   497.7    46.1   1
   9  12  11   -83.3    54.6   1
   9  12  13    23.1    75.5   1
   9  12  14  1972.5   103.3   1
   9  12  16  1607.5   116.8   1
   9  12  17  -226.1   133.7   1
   9  13 -20   -63.1    60.1   1
   9  13 -19  -154.9    53.1   1
   9  13 -16   234.8    52.2   1
   9  13 -15    80.5    49.7   1
   9  13 -11  1544.0    53.0   1
   9  13 -10  2508.4    53.5   1
   9  13  -8   427.4    26.1   1
   9  13  -7   539.4    29.2   1
   9  13  -6   422.8    23.6   1
   9  13  -5  3071.1    55.3   1
   9  13  -4   758.4    26.6   1
   9  13  -3   171.3    17.1   1
   9  13  -2   114.7    16.8   1
   9  13  -1  3481.2    46.8   1
   9  13   1   116.0    17.1   1
   9  13   2   305.6    17.0   1
   9  13   3  1300.7    33.8   1
   9  13   4   -35.8    23.2   1
   9  13   5    84.6    25.9   1
   9  13   6   473.7    27.0   1
   9  13   7    44.6    31.5   1
   9  13   8    14.2    35.2   1
   9  13  10   166.4    47.2   1
   9  13  11   385.6    58.1   1
   9  13  12  2582.3    90.1   1
   9  13  13   105.3    78.0   1
   9  13  14    11.8    95.0   1
   9  13  15   668.0   102.0   1
   9  13  16  -197.9   112.8   1
   9  13  17   286.1   145.1   1
   9  14 -20   514.3    67.0   1
   9  14 -16  1076.6    63.0   1
   9  14 -15   -87.7    50.6   1
   9  14 -12   512.2    41.3   1
   9  14 -11  1710.1    56.0   1
   9  14 -10   646.3    38.3   1
   9  14  -8   205.9    28.3   1
   9  14  -7    13.7    21.5   1
   9  14  -6  1189.7    31.4   1
   9  14  -5   588.1    27.0   1
   9  14  -4   544.9    27.6   1
   9  14  -3   510.3    24.6   1
   9  14  -2  1634.4    33.2   1
   9  14  -1   109.5    15.9   1
   9  14   0  1689.2    77.3   1
   9  14   1   249.0    19.0   1
   9  14   2  1299.2    33.1   1
   9  14   3   313.4    20.7   1
   9  14   4  1158.1    30.5   1
   9  14   5   112.6    23.1   1
   9  14   6    42.6    25.5   1
   9  14   7   -88.3    31.8   1
   9  14   8   -24.1    36.5   1
   9  14  10   407.9    53.4   1
   9  14  11   204.9    60.3   1
   9  14  12   786.0    76.3   1
   9  14  13    29.1    80.2   1
   9  14  14   204.4    86.9   1
   9  14  15  -114.4   104.0   1
   9  14  16  -120.4   120.2   1
   9  14  17   272.6   154.5   1
   9  15 -19  1749.3    74.3   1
   9  15 -16  1780.3    76.8   1
   9  15 -14   -10.0    49.1   1
   9  15 -13  1450.7    59.8   1
   9  15 -11  1141.6    49.4   1
   9  15 -10    36.5    32.6   1
   9  15  -8   615.5    29.6   1
   9  15  -7  1034.3    32.8   1
   9  15  -5   563.8    27.0   1
   9  15  -4  2479.4    51.0   1
   9  15  -1    29.6    22.7   1
   9  15   1    36.7    18.0   1
   9  15   2   350.7    21.1   1
   9  15   4    21.5    21.6   1
   9  15   5    -3.1    24.4   1
   9  15   7   -30.3    33.1   1
   9  15   8   -66.2    39.2   1
   9  15  10   207.5    55.1   1
   9  15  11   418.9    66.5   1
   9  15  13   274.2    91.9   1
   9  15  14   -49.8    93.0   1
   9  15  16  1904.8   142.6   1
   9  15  17   294.4   168.4   1
   9  16 -19   -27.2    65.6   1
   9  16 -13    24.5    47.9   1
   9  16 -12   -16.0    43.3   1
   9  16 -11   185.9    32.9   1
   9  16 -10  1435.7    42.8   1
   9  16  -8   807.0    34.3   1
   9  16  -7   344.9    27.8   1
   9  16  -6   -30.8    24.4   1
   9  16  -5    42.7    24.0   1
   9  16  -4    76.9    30.0   1
   9  16  -3   701.3    43.3   1
   9  16  -1   969.2    43.4   1
   9  16   1   364.6    33.1   1
   9  16   2  3275.2    60.3   1
   9  16   3   199.9    21.8   1
   9  16   4   824.2    28.7   1
   9  16   5    12.5    24.7   1
   9  16   6  1703.7    49.7   1
   9  16   7   764.9    42.1   1
   9  16   8    49.7    42.9   1
   9  16  10   -83.3    57.3   1
   9  16  11   -63.4    67.7   1
   9  16  12   221.0    78.3   1
   9  16  13   193.2    83.8   1
   9  16  14  -242.5    98.7   1
   9  16  15   -45.8   113.6   1
   9  17 -15   363.5    63.6   1
   9  17 -14   350.4    59.7   1
   9  17 -13   861.9    58.8   1
   9  17 -12    60.0    46.4   1
   9  17 -11   -46.6    35.3   1
   9  17 -10   195.3    34.2   1
   9  17  -8  1871.3    51.7   1
   9  17  -7   100.8    28.0   1
   9  17  -6   392.9    30.8   1
   9  17  -5   469.5    32.7   1
   9  17  -4  1331.9    50.3   1
   9  17  -3    22.5    41.5   1
   9  17   2   115.5    28.8   1
   9  17   3   422.2    24.7   1
   9  17   4   576.1    27.3   1
   9  17   5   520.9    29.4   1
   9  17   6    17.1    34.7   1
   9  17   7   349.4    42.1   1
   9  17  11   -83.9    68.8   1
   9  17  12   -71.5    73.4   1
   9  17  13    -7.9    87.5   1
   9  17  14  -182.3   104.7   1
   9  17  15  -208.1   123.0   1
   9  17  16   701.2   156.0   1
   9  18 -19   -13.8    72.2   1
   9  18 -17   767.0    61.5   1
   9  18 -16   -44.5    49.0   1
   9  18 -10   153.4    35.3   1
   9  18  -8   191.1    32.2   1
   9  18  -7    63.6    30.8   1
   9  18   1   126.7    39.0   1
   9  18   2    85.0    33.6   1
   9  18   4   537.9    31.0   1
   9  18   5    -5.3    33.2   1
   9  18   7     8.7    44.0   1
   9  19 -17   590.4    65.4   1
   9  19 -16    53.8    55.0   1
   9  19 -13   877.0    69.4   1
   9  19 -11   640.0    42.9   1
   9  19  -8   185.0    36.1   1
   9  19  -7    10.3    50.3   1
   9  19  -5   979.0    72.2   1
   9  19  -3   135.6    67.1   1
   9  19  -1   -64.8    60.8   1
   9  19   1    -8.9    49.1   1
   9  19   2    54.1    39.2   1
   9  19   3   359.8    41.3   1
   9  19   4    -3.7    33.8   1
   9  19   5   -57.8    30.1   1
   9  19   6    63.1    41.0   1
   9  19   7  1602.5    59.4   1
   9  19   8    37.4    51.8   1
   9  19  11   753.6    76.8   1
   9  19  12    15.3    86.5   1
   9  19  13   782.7   102.5   1
   9  19  15    61.2   149.9   1
   9  20 -15    36.2    51.7   1
   9  20 -13   -63.1    69.2   1
   9  20 -11   354.8    43.4   1
   9  20 -10   -66.5    38.8   1
   9  20  -5   334.1    76.8   1
   9  20  -2  -106.4    84.3   1
   9  20   2    -3.4    45.3   1
   9  20   3     6.7    45.4   1
   9  20   4   448.3    42.4   1
   9  20   5   116.4    42.8   1
   9  20   6   -54.0    45.3   1
   9  20   7   -46.2    52.7   1
   9  20   8   -16.2    49.5   1
   9  20   9   265.3    59.8   1
   9  20  10   -56.7    66.3   1
   9  20  12    19.8    92.0   1
   9  20  13  -136.2   108.0   1
   9  20  14  -211.6   133.5   1
   9  20  15    12.7   163.2   1
   9  21 -17   410.5    73.5   1
   9  21 -16   189.4    61.1   1
   9  21 -11  1026.8    53.4   1
   9  21 -10    71.2    45.3   1
   9  21  -2  -144.5   121.2   1
   9  21   5   -74.6    48.5   1
   9  21   7   800.2    53.8   1
   9  21   8    96.4    54.3   1
   9  21  10   166.8    73.5   1
   9  21  11  1803.4    94.7   1
   9  21  13   365.1   123.4   1
   9  21  14   822.2   149.9   1
   9  22 -17   -10.6    77.0   1
   9  22 -16   177.4    68.9   1
   9  22 -11    24.4    49.1   1
   9  22   5   -52.8    54.6   1
   9  22   6  1129.3    69.4   1
   9  22   7   -42.2    53.0   1
   9  22   8   192.9    61.2   1
   9  22   9   265.7    69.6   1
   9  22  10   334.8    80.1   1
   9  22  11   212.9    95.5   1
   9  22  12   210.6   115.1   1
   9  22  14   113.8   160.9   1
   9  23 -17   388.3    83.7   1
   9  23 -16  -113.5    77.3   1
   9  23   6   -30.6    71.6   1
   9  23   7    23.2    62.4   1
   9  23   8   -98.9    67.6   1
   9  23  10   108.8    90.4   1
   9  23  11  -241.8   108.1   1
   9  23  12   473.6   131.6   1
   9  23  13  -345.5   150.3   1
   9  24   7     2.2    73.9   1
   9  24   8   347.9    83.0   1
   9  24  10   348.8   107.8   1
   9  24  11  -273.1   124.6   1
   9  25   8    15.6    92.8   1
   9  25  10    42.0   117.4   1
   9  25  11    43.5   138.6   1
   9  25  12   798.1   161.3   1
   9  26  10  -126.2   133.1   1
   9  26  11   160.4   154.3   1
  10   0 -13    -6.7    18.2   1
  10   0  -7     6.8    20.9   1
  10   0  -3   -22.7    21.0   1
  10   0   7   -30.4    27.4   1
  10   0   9    46.0    39.2   1
  10   0  13   -29.7    55.1   1
  10   1 -25    26.7   108.3   1
  10   1 -24   228.2    90.2   1
  10   1 -23    45.9    71.4   1
  10   1 -22   233.7    59.3   1
  10   1 -21    94.4    41.1   1
  10   1 -19   969.8    38.4   1
  10   1 -18   463.7    29.6   1
  10   1 -17    25.7    23.1   1
  10   1 -16   338.0    19.9   1
  10   1 -15    71.9    16.4   1
  10   1 -14   362.0    16.7   1
  10   1 -13    45.1    14.4   1
  10   1 -12   -18.0    13.9   1
  10   1 -11    54.9    14.7   1
  10   1  -9  2097.6    41.4   1
  10   1  -8    19.7    14.6   1
  10   1  -7  1620.9    28.5   1
  10   1  -6   130.0    15.2   1
  10   1  -4  3283.7    44.6   1
  10   1  -3    82.0    15.2   1
  10   1  -2  2792.1    46.3   1
  10   1  -1   349.9    20.2   1
  10   1   1   461.1    30.4   1
  10   1   2  8322.3   121.0   1
  10   1   3   778.7    29.3   1
  10   1   4   461.9    27.4   1
  10   1   5     4.3    26.3   1
  10   1   6  4837.8    64.9   1
  10   1   7   121.6    21.3   1
  10   1   8   -65.9    22.5   1
  10   1  12   257.1    32.1   1
  10   1  13  -118.8    36.6   1
  10   1  14   719.8    50.4   1
  10   1  15   -78.7    53.1   1
  10   1  16   -63.3    77.0   1
  10   1  17  -146.1    94.6   1
  10   1  18   -14.9   157.2   1
  10   2 -23   897.5    76.5   1
  10   2 -21   293.1    48.5   1
  10   2 -19   739.0    44.1   1
  10   2 -17   297.7    26.1   1
  10   2 -15  1953.2    34.1   1
  10   2 -13   589.7    18.6   1
  10   2 -11    46.9    15.5   1
  10   2  -9  1198.4    32.8   1
  10   2  -7  4233.4    55.7   1
  10   2  -5    23.3    14.8   1
  10   2  -3   569.7    18.8   1
  10   2  -1  2106.1    40.0   1
  10   2   1  2381.3    61.5   1
  10   2   3    36.6    23.5   1
  10   2   5    96.3    26.9   1
  10   2   7   247.5    20.0   1
  10   2   9   -86.2    33.0   1
  10   2  11   -50.0    29.0   1
  10   2  13  2968.1    59.6   1
  10   2  15   -68.4    61.4   1
  10   2  17   340.6   100.8   1
  10   3 -25   517.7   107.9   1
  10   3 -23   238.4    67.0   1
  10   3 -22    36.9    57.3   1
  10   3 -21   -22.1    47.5   1
  10   3 -19  1099.9    58.8   1
  10   3 -18   231.6    36.7   1
  10   3 -17   414.1    27.4   1
  10   3 -16    -3.8    22.2   1
  10   3 -15   155.2    19.9   1
  10   3 -14     7.0    16.3   1
  10   3 -13  8351.7   205.2   1
  10   3 -12    -6.6    13.1   1
  10   3 -11  2595.9    34.6   1
  10   3  -9  2267.9    37.0   1
  10   3  -8  4384.6    61.0   1
  10   3  -7   230.8    15.8   1
  10   3  -6  1452.8    25.6   1
  10   3  -5   128.9    15.4   1
  10   3  -4  1962.6    36.6   1
  10   3  -3  2158.6    47.6   1
  10   3  -2    10.6    15.5   1
  10   3  -1   329.5    18.7   1
  10   3   1   283.0    20.5   1
  10   3   2   667.2    31.6   1
  10   3   4  1917.9    50.7   1
  10   3   5    65.5    27.5   1
  10   3   6    18.1    20.4   1
  10   3   7    39.9    23.4   1
  10   3   8   961.1    28.0   1
  10   3   9     5.9    23.0   1
  10   3  11   240.8    30.8   1
  10   3  12   275.8    35.3   1
  10   3  13   -76.5    38.8   1
  10   3  14   230.1    51.5   1
  10   3  15   263.0    67.3   1
  10   3  16  -139.8    83.2   1
  10   3  17   237.9   142.6   1
  10   3  18   449.9   165.1   1
  10   4 -23   271.0    65.3   1
  10   4 -21   -33.2    47.9   1
  10   4 -19  1308.1    64.5   1
  10   4 -17  1257.3    38.3   1
  10   4 -15   277.8    24.5   1
  10   4 -13   285.6    18.8   1
  10   4 -11    66.7    13.5   1
  10   4  -9   832.4    20.5   1
  10   4  -7  1855.8    31.6   1
  10   4  -5  4230.6   137.8   1
  10   4  -3    73.0    16.8   1
  10   4  -1   107.0    17.6   1
  10   4   1  4647.4    65.7   1
  10   4   3    51.2    24.9   1
  10   4   5   208.2    22.8   1
  10   4   7   362.7    21.8   1
  10   4   9   683.0    27.5   1
  10   4  11  1000.0    36.6   1
  10   4  13   569.4    54.2   1
  10   4  15   101.2    90.3   1
  10   4  17  1304.6   154.4   1
  10   5 -22   -56.3    56.7   1
  10   5 -21   123.7    49.5   1
  10   5 -19   304.6    52.9   1
  10   5 -18    26.5    42.5   1
  10   5 -17   776.4    39.2   1
  10   5 -16    14.6    24.8   1
  10   5 -14   -41.6    24.7   1
  10   5 -13  1389.4    32.8   1
  10   5 -12   265.4    18.4   1
  10   5 -11  1158.2    25.2   1
  10   5  -9  2773.1    36.8   1
  10   5  -8  2465.3    34.1   1
  10   5  -7   387.7    17.5   1
  10   5  -6  3515.8    45.0   1
  10   5  -4  6049.8    74.6   1
  10   5  -3   508.7    17.6   1
  10   5  -2   674.4    20.4   1
  10   5  -1   428.7    19.8   1
  10   5   1   952.1    30.2   1
  10   5   2   307.6    25.4   1
  10   5   3    63.1    26.5   1
  10   5   4   289.5    29.4   1
  10   5   6    34.3    22.5   1
  10   5   7    -1.7    19.8   1
  10   5   8    90.2    21.8   1
  10   5   9   -62.4    25.6   1
  10   5  11   189.6    32.8   1
  10   5  12  1979.1    53.2   1
  10   5  13    -6.3    69.2   1
  10   5  14  -108.8    70.7   1
  10   5  16  2406.9   141.2   1
  10   5  17   -86.4   153.4   1
  10   5  18   326.9   203.6   1
  10   6 -21   117.8    50.9   1
  10   6 -19   842.0    58.6   1
  10   6 -17  1009.8    44.3   1
  10   6 -15   314.9    36.4   1
  10   6 -13   144.5    20.3   1
  10   6 -11    62.6    21.8   1
  10   6  -9  1201.6    23.1   1
  10   6  -7  6177.8    84.5   1
  10   6  -5  3929.8    76.5   1
  10   6  -3  8114.3   114.2   1
  10   6  -1    55.2    18.5   1
  10   6   1    -5.2    20.3   1
  10   6   5  1454.3    36.1   1
  10   6   7   624.0    35.4   1
  10   6   9   -48.1    29.8   1
  10   6  11   -82.5    37.5   1
  10   6  13    48.6    61.0   1
  10   6  15   -84.6    96.0   1
  10   6  17  -185.7   160.6   1
  10   7 -22   183.6    61.6   1
  10   7 -21   -37.2    52.4   1
  10   7 -19   439.8    56.7   1
  10   7 -18   499.0    49.7   1
  10   7 -17  1472.2    57.5   1
  10   7 -16   335.1    39.9   1
  10   7 -15   734.6    40.6   1
  10   7 -14   637.3    35.7   1
  10   7 -13    50.0    25.1   1
  10   7 -12     0.7    19.3   1
  10   7 -11    45.2    21.6   1
  10   7 -10   814.9    36.2   1
  10   7  -9  3677.3    47.0   1
  10   7  -8  6290.9    75.9   1
  10   7  -7  2119.8    36.1   1
  10   7  -6   770.9    18.9   1
  10   7  -5   914.9    22.8   1
  10   7  -4  5536.0    78.9   1
  10   7  -2   716.1    21.5   1
  10   7  -1    65.5    20.1   1
  10   7   1    -3.8    21.7   1
  10   7   2   346.5    25.2   1
  10   7   3   573.2    30.8   1
  10   7   4   -32.6    21.9   1
  10   7   5    93.3    26.4   1
  10   7   6   398.3    25.6   1
  10   7   7   -17.9    27.0   1
  10   7   8   159.7    29.2   1
  10   7   9     7.8    30.7   1
  10   7  11    63.1    46.1   1
  10   7  12  1393.0    68.8   1
  10   7  15   -59.8   111.0   1
  10   7  16  -176.6   132.6   1
  10   7  17  2066.1   184.8   1
  10   8 -23  1100.9    84.0   1
  10   8 -21   -95.1    53.6   1
  10   8 -19   -16.3    56.6   1
  10   8 -17   422.4    46.1   1
  10   8 -15   157.4    36.1   1
  10   8 -13   193.2    25.9   1
  10   8 -11    88.5    24.2   1
  10   8  -9  7070.6    85.7   1
  10   8  -7   174.6    15.9   1
  10   8  -5   563.3    21.9   1
  10   8  -3   957.7    21.9   1
  10   8  -1   291.0    17.2   1
  10   8   1  1918.9    33.4   1
  10   8   3   244.7    23.1   1
  10   8   5   -32.2    26.6   1
  10   8   7   238.6    31.3   1
  10   8   9   396.8    36.8   1
  10   8  11   -46.1    50.4   1
  10   8  13   -29.5    72.2   1
  10   8  15  -248.3   113.5   1
  10   8  17    83.3   175.4   1
  10   9 -24   608.6    95.8   1
  10   9 -23  -235.8    78.8   1
  10   9 -22   714.3    70.6   1
  10   9 -18   -87.4    50.0   1
  10   9 -17   164.2    48.5   1
  10   9 -16   433.2    47.2   1
  10   9 -15   239.0    45.7   1
  10   9 -14   -16.9    35.0   1
  10   9 -13   216.0    31.8   1
  10   9 -12   281.7    29.8   1
  10   9 -11   947.4    48.9   1
  10   9  -9   471.0    29.2   1
  10   9  -8  2665.4    47.8   1
  10   9  -7    20.1    14.6   1
  10   9  -6    98.7    15.5   1
  10   9  -5   593.1    21.9   1
  10   9  -4  3976.2    54.5   1
  10   9  -3   988.3    21.5   1
  10   9  -2   100.9    17.5   1
  10   9  -1  1001.4    28.1   1
  10   9   1   116.4    17.1   1
  10   9   2   797.7    26.7   1
  10   9   3  1025.0    30.5   1
  10   9   4   588.9    31.4   1
  10   9   5  1458.1    46.4   1
  10   9   6  1114.5    39.8   1
  10   9   7    -4.4    31.1   1
  10   9   8   665.5    37.4   1
  10   9  10    56.7    54.7   1
  10   9  12   940.5    70.1   1
  10   9  13   160.8    78.2   1
  10   9  14  -137.4    93.9   1
  10   9  15   328.7   119.7   1
  10   9  16  -260.2   151.0   1
  10   9  17   892.9   188.6   1
  10  10 -13   311.9    37.0   1
  10  10  -9  1628.4    46.7   1
  10  10  -7     5.7    19.0   1
  10  10  -3   862.8    22.1   1
  10  10  -1    -4.9    14.9   1
  10  10   1   504.1    20.7   1
  10  10   3   -17.7    48.4   1
  10  11 -24    13.5   105.0   1
  10  11 -23   794.7    90.3   1
  10  11 -22   903.2    80.7   1
  10  11 -18  1154.5    68.4   1
  10  11 -17   -98.0    54.1   1
  10  11 -16    16.1    51.0   1
  10  11 -15   119.6    47.9   1
  10  11 -14  1402.6    54.5   1
  10  11 -13   603.4    42.4   1
  10  11 -12   -15.8    32.3   1
  10  11  -9   -79.3    59.1   1
  10  11  -8   857.8    28.9   1
  10  11  -7    23.7    21.0   1
  10  11  -6   763.6    25.1   1
  10  11  -5  1035.4    35.0   1
  10  11  -4   459.7    19.4   1
  10  11  -3     1.2    15.2   1
  10  11  -2    -0.4    15.0   1
  10  11  -1    53.9    15.5   1
  10  11   2    12.3    18.2   1
  10  11   3   282.4    24.0   1
  10  11   4    28.0    22.7   1
  10  11   5    41.3    28.9   1
  10  11   6   143.8    30.4   1
  10  11   7   -12.7    32.2   1
  10  11   8   -32.6    35.5   1
  10  11   9   742.3    49.1   1
  10  11  13  -219.3    86.8   1
  10  11  14  2334.2   123.1   1
  10  11  15   365.2   132.4   1
  10  12 -23  -146.5    93.2   1
  10  12 -21   102.3    67.3   1
  10  12 -17   -49.3    59.2   1
  10  12 -13   -54.8    38.9   1
  10  12 -11  2189.4    59.0   1
  10  12  -9   316.6    30.7   1
  10  12  -7   834.6    30.2   1
  10  12  -5   839.7    32.6   1
  10  12  -3  1317.5    30.7   1
  10  12  -1    19.3    16.9   1
  10  12   1    79.8    21.0   1
  10  12   3   268.4    22.8   1
  10  12   5   -57.1    26.6   1
  10  12   7   -68.8    32.4   1
  10  12   9   -32.5    46.5   1
  10  12  11     6.0    65.7   1
  10  12  13   218.5    93.2   1
  10  13 -22  -112.1    85.3   1
  10  13 -16    90.9    58.3   1
  10  13 -14   121.3    48.5   1
  10  13 -12   893.9    39.1   1
  10  13 -11    44.7    29.2   1
  10  13  -9  1436.6    36.0   1
  10  13  -8   126.2    25.3   1
  10  13  -7  2507.5    80.8   1
  10  13  -6   -50.4    23.5   1
  10  13  -5   740.4    32.5   1
  10  13  -4   -29.2    20.5   1
  10  13  -3   -10.6    19.1   1
  10  13  -2   205.8    21.8   1
  10  13  -1    99.8    18.1   1
  10  13   1   206.5    18.5   1
  10  13   2  2275.5    39.3   1
  10  13   3   638.6    28.2   1
  10  13   4   155.7    25.6   1
  10  13   5   194.3    26.6   1
  10  13   6   319.5    31.0   1
  10  13   8   -22.6    42.8   1
  10  13   9  1573.6    63.5   1
  10  13  11   207.4    67.3   1
  10  13  12    -4.8    81.1   1
  10  13  14   248.0   119.6   1
  10  13  15  -325.4   145.8   1
  10  13  16   304.1   188.8   1
  10  14 -21    40.4    78.3   1
  10  14 -17  1331.8    81.0   1
  10  14 -13    57.9    38.2   1
  10  14 -11   616.9    35.9   1
  10  14  -9   396.0    30.0   1
  10  14  -7   -43.0    24.2   1
  10  14  -3   904.5    27.6   1
  10  14  -1   107.5    19.9   1
  10  14   1   362.9    20.5   1
  10  14   3  1961.2    45.4   1
  10  14   5   -16.7    26.5   1
  10  14   7  1397.9    45.2   1
  10  14   9    67.9    54.2   1
  10  14  11   428.7    74.1   1
  10  14  13   -12.1   103.7   1
  10  14  15   897.0   164.3   1
  10  15 -22  -117.1    97.2   1
  10  15 -21   -69.6    87.8   1
  10  15 -16  1052.7    76.5   1
  10  15 -13     2.4    41.1   1
  10  15 -12   -15.9    37.1   1
  10  15 -11   -89.9    35.0   1
  10  15  -9   -46.4    29.3   1
  10  15  -8   151.5    28.2   1
  10  15  -7   475.0    25.4   1
  10  15  -6   513.9    26.4   1
  10  15  -4     2.7    23.6   1
  10  15  -3   904.2    32.0   1
  10  15  -2   -52.7    24.9   1
  10  15  -1   402.3    25.4   1
  10  15   1   212.9    21.9   1
  10  15   2    75.1    21.0   1
  10  15   3   559.0    25.6   1
  10  15   4   445.4    27.5   1
  10  15   6   499.5    33.8   1
  10  15   7     1.3    34.7   1
  10  15   8   671.4    52.1   1
  10  15   9   700.3    66.0   1
  10  15  11   449.1    77.4   1
  10  15  13   -23.4   110.7   1
  10  15  14    52.4   133.7   1
  10  15  16   -96.1   169.7   1
  10  16 -21    92.1    91.7   1
  10  16 -11   -31.6    34.9   1
  10  16  -9    59.6    31.8   1
  10  16  -7   129.8    24.0   1
  10  16  -5    39.8    28.6   1
  10  16  -3   474.1    37.8   1
  10  16  -1   342.0    36.4   1
  10  16   1   194.4    24.0   1
  10  16   3  1841.8    43.3   1
  10  16   7   511.5    47.4   1
  10  16   9   200.9    60.0   1
  10  16  11   162.5    83.5   1
  10  16  13  -211.6   117.3   1
  10  16  15   105.4   147.3   1
  10  17 -22   499.9   114.4   1
  10  17 -21  1530.0   110.1   1
  10  17 -19   -11.8    72.8   1
  10  17 -16   678.2    87.2   1
  10  17 -15   -14.1    72.4   1
  10  17 -12  1263.6    53.4   1
  10  17 -11   -27.0    39.2   1
  10  17  -9   232.8    35.6   1
  10  17  -8   205.6    28.0   1
  10  17  -7   241.8    27.1   1
  10  17  -6   258.1    35.5   1
  10  17  -5  2191.2   104.2   1
  10  17  -4   635.5    48.0   1
  10  17  -3    60.6    55.1   1
  10  17  -1   -16.1    38.7   1
  10  17   1  1706.2    73.5   1
  10  17   2    41.4    26.5   1
  10  17   3   288.8    27.1   1
  10  17   4    62.1    27.9   1
  10  17   5   490.4    34.3   1
  10  17   7   288.2    48.2   1
  10  17   8    12.7    54.7   1
  10  17   9   218.2    64.1   1
  10  17  11  -116.4    90.6   1
  10  17  12    57.6   103.8   1
  10  17  13  -139.5   127.7   1
  10  17  14  -236.5   157.1   1
  10  17  15   -35.2   162.3   1
  10  18 -21   381.9   107.1   1
  10  18  -9   102.6    37.1   1
  10  18  -7   288.0    39.0   1
  10  18  -1   308.9    67.0   1
  10  18   1   -74.4    52.7   1
  10  18   3   675.7    33.6   1
  10  18   5   -27.3    33.4   1
  10  18   7  -140.8    52.9   1
  10  18   9   -37.1    68.6   1
  10  18  11   216.7    97.0   1
  10  18  13  -254.8   141.1   1
  10  19 -21   -71.7   111.2   1
  10  19 -12   630.7    50.6   1
  10  19 -11   -21.7    43.6   1
  10  19  -8   367.9    43.7   1
  10  19  -7    66.1    41.5   1
  10  19  -6   -69.5    43.2   1
  10  19   2    32.6    49.3   1
  10  19   3   -99.2    47.3   1
  10  19   4  1715.6    50.2   1
  10  19   5  1054.8    45.4   1
  10  19   6   537.9    43.9   1
  10  19   7    42.9    58.3   1
  10  19   8   741.4    72.9   1
  10  19  11   647.9   109.2   1
  10  19  12  -465.5   125.6   1
  10  19  13     3.0   125.4   1
  10  19  14    35.4   158.8   1
  10  20 -11   154.7    48.7   1
  10  20  -9   346.5    49.6   1
  10  20  -7   -99.0    47.1   1
  10  20   1  1292.6    93.0   1
  10  21 -12   -20.0    54.6   1
  10  21  -9    25.0    54.6   1
  10  21   2   153.4    69.8   1
  10  21   3   399.3    72.8   1
  10  21   6    30.6    65.1   1
  10  21   7   138.0    73.0   1
  10  21   8   302.0    82.9   1
  10  21   9   129.8    95.9   1
  10  21  12   339.5   131.2   1
  10  21  13  -115.4   157.4   1
  10  22 -11   -97.9    61.0   1
  10  22   7   -87.9    84.8   1
  10  22   9   -62.4   107.6   1
  10  22  11   196.1   122.4   1
  10  22  13  -526.0   171.0   1
  10  23 -11   298.9    67.9   1
  10  23   6   390.8    89.1   1
  10  23   7   -66.2    96.1   1
  10  23   8  -149.7    83.0   1
  10  23   9   147.3    95.6   1
  10  23  11  -272.0   133.0   1
  10  23  12  1729.1   169.6   1
  10  24   5   424.2    96.0   1
  10  24   7   137.2    87.3   1
  10  24  11  -341.6   148.9   1
  10  25   6   474.4   121.9   1
  10  25   7   501.4   103.3   1
  10  25   8   187.6   111.0   1
  10  25   9  1934.0   138.6   1
  10  26   9   567.0   146.9   1
  10  27   8   124.1   151.9   1
  10  27   9  -115.3   165.2   1
  11   0 -20   269.4    51.4   1
  11   0 -18   430.3    40.9   1
  11   0 -16   162.1    28.8   1
  11   0 -15    35.6    25.0   1
  11   0 -14    20.3    22.0   1
  11   0 -12   665.3    28.9   1
  11   0 -10  1489.4    43.1   1
  11   0  -9    32.5    23.2   1
  11   0  -8   820.7    31.7   1
  11   0  -2   626.5    31.0   1
  11   0  -1    22.2    22.9   1
  11   0   7   -30.6    30.1   1
  11   0  17   119.7   150.7   1
  11   1 -26   550.9   153.0   1
  11   1 -25    54.0   118.7   1
  11   1 -24   399.7   101.4   1
  11   1 -23   145.6    68.9   1
  11   1 -20   140.5    43.0   1
  11   1 -19   -54.4    35.9   1
  11   1 -18    95.7    26.4   1
  11   1 -17    52.9    22.9   1
  11   1 -16     2.0    20.2   1
  11   1 -15   623.5    20.5   1
  11   1 -14     5.4    14.3   1
  11   1 -13    37.6    14.6   1
  11   1 -12   145.3    15.8   1
  11   1  -9   310.5    18.0   1
  11   1  -8  3438.1    46.0   1
  11   1  -7  1094.6    25.9   1
  11   1  -6  9256.3   128.1   1
  11   1  -5    30.2    17.0   1
  11   1  -4    11.8    18.2   1
  11   1  -3   271.6    18.6   1
  11   1  -2  1572.8    30.0   1
  11   1  -1   991.6    35.1   1
  11   1   2   560.7    33.0   1
  11   1   3   360.5    32.2   1
  11   1   4   -25.8    31.5   1
  11   1   5   154.6    25.3   1
  11   1   6   749.1    28.6   1
  11   1   7   253.8    22.2   1
  11   1   8   388.0    26.0   1
  11   1   9  1619.3    44.3   1
  11   1  10  1441.6    58.3   1
  11   1  12  2393.5    73.1   1
  11   1  13  1152.4    51.8   1
  11   1  14   -16.0    75.9   1
  11   1  15  -175.1    68.7   1
  11   1  16  1209.4    93.6   1
  11   1  17    80.2   106.2   1
  11   2 -24    28.7    95.6   1
  11   2 -23   154.9    73.2   1
  11   2 -21    66.5    63.7   1
  11   2 -20   505.9    46.5   1
  11   2 -19   161.6    37.4   1
  11   2 -18   274.1    32.5   1
  11   2 -17   439.0    26.5   1
  11   2 -16   630.3    26.2   1
  11   2 -15  1149.3    29.2   1
  11   2 -14   216.5    16.6   1
  11   2 -13   712.0    22.1   1
  11   2 -12  3881.1    46.8   1
  11   2 -10  2387.1    35.4   1
  11   2  -9    98.1    15.5   1
  11   2  -8   871.0    20.6   1
  11   2  -7    93.7    17.5   1
  11   2  -6  6202.5    78.3   1
  11   2  -5  1630.2    32.4   1
  11   2  -4  1697.2    35.0   1
  11   2  -3   920.0    24.7   1
  11   2  -1   117.7    26.0   1
  11   2   3  8450.3   125.0   1
  11   2   4    99.8    28.6   1
  11   2   5   -29.3    23.9   1
  11   2   6   -19.3    24.2   1
  11   2   7    68.0    22.7   1
  11   2   8   -45.4    23.6   1
  11   2   9   245.9    27.3   1
  11   2  10   188.3    35.4   1
  11   2  12   348.1    45.0   1
  11   2  14   949.0    61.2   1
  11   2  15   505.8    73.7   1
  11   2  16  1787.0    97.6   1
  11   2  17  -136.8   126.6   1
  11   3 -23  -116.7    73.1   1
  11   3 -20   163.6    56.4   1
  11   3 -19    24.8    36.5   1
  11   3 -18   507.6    35.0   1
  11   3 -17  1542.2    41.6   1
  11   3 -16  1142.8    32.1   1
  11   3 -15    72.7    19.3   1
  11   3 -14  1117.1    50.3   1
  11   3 -13    27.1    14.7   1
  11   3 -12     3.2    13.5   1
  11   3 -10   332.8    15.5   1
  11   3  -9   169.8    16.7   1
  11   3  -7  2952.1    42.8   1
  11   3  -6  5992.5    91.3   1
  11   3  -5   -11.0    17.9   1
  11   3  -4  1822.7    38.7   1
  11   3  -3  1055.5    32.7   1
  11   3  -2   133.8    16.5   1
  11   3  -1   804.7    27.9   1
  11   3   1   -30.6    23.1   1
  11   3   2  3573.9    59.8   1
  11   3   4   313.1    27.7   1
  11   3   5  1344.6    38.7   1
  11   3   6   321.3    24.9   1
  11   3   7    90.7    23.0   1
  11   3   8  1510.2    49.4   1
  11   3   9    52.2    26.9   1
  11   3  10   162.6    32.0   1
  11   3  11   376.6    49.2   1
  11   3  12   150.5    44.8   1
  11   3  13  -108.8    47.2   1
  11   3  14   501.3    80.5   1
  11   3  15  -126.8    70.5   1
  11   3  16   209.2   101.6   1
  11   3  17   367.8   132.5   1
  11   4 -20   505.3    63.3   1
  11   4 -19   -76.5    38.4   1
  11   4 -17    77.0    30.1   1
  11   4 -16    -6.2    25.8   1
  11   4 -15   322.9    22.9   1
  11   4 -14   -12.1    18.0   1
  11   4 -13  1829.9    37.3   1
  11   4 -12  1653.2    26.4   1
  11   4 -10  1598.3    25.6   1
  11   4  -9  2644.0    42.8   1
  11   4  -8  1904.4    29.4   1
  11   4  -7    68.3    21.9   1
  11   4  -6   119.0    18.5   1
  11   4  -5  4377.6    54.4   1
  11   4  -4   -49.7    24.7   1
  11   4  -3  1130.6    24.6   1
  11   4  -2  3078.5    67.9   1
  11   4  -1  3152.9    49.0   1
  11   4   1   400.0    25.5   1
  11   4   2    47.0    24.6   1
  11   4   3  1341.0    37.6   1
  11   4   4  1190.2    47.9   1
  11   4   5    83.2    24.0   1
  11   4   6    20.7    22.4   1
  11   4   7  1000.7    42.6   1
  11   4   8    43.7    24.5   1
  11   4   9    59.4    28.1   1
  11   4  10   249.3    34.1   1
  11   4  11    -9.2    38.1   1
  11   4  12   -49.7    47.1   1
  11   4  13    42.7    65.8   1
  11   4  14  -123.9    72.2   1
  11   4  15   375.0   102.0   1
  11   4  16  1865.6   118.0   1
  11   4  17   322.2   156.6   1
  11   5 -19   177.6    53.4   1
  11   5 -18   189.2    37.0   1
  11   5 -16    39.6    27.6   1
  11   5 -15    -8.3    24.5   1
  11   5 -14   102.6    21.6   1
  11   5 -13   -27.7    19.2   1
  11   5 -12  1324.8    27.6   1
  11   5 -10   686.5    20.4   1
  11   5  -9  1146.3    25.1   1
  11   5  -8  1380.7    27.1   1
  11   5  -7  1357.1    25.5   1
  11   5  -6   867.2    23.8   1
  11   5  -5   299.0    23.1   1
  11   5  -4   375.0    18.2   1
  11   5  -3   819.2    26.9   1
  11   5  -2   125.3    20.1   1
  11   5  -1     8.7    19.8   1
  11   5   1   349.1    24.6   1
  11   5   2   469.4    27.2   1
  11   5   3   570.9    31.0   1
  11   5   4   754.9    32.6   1
  11   5   5   749.3    42.5   1
  11   5   6   597.6    43.9   1
  11   5   7   920.6    31.2   1
  11   5   8   536.4    30.8   1
  11   5   9   361.2    30.7   1
  11   5  10   739.2    42.6   1
  11   5  12   -10.0    49.7   1
  11   5  13  -179.4    57.6   1
  11   5  14   320.9    89.8   1
  11   5  15    -1.5   120.1   1
  11   5  16  -177.3   153.0   1
  11   6 -19   596.2    61.2   1
  11   6 -18    -5.4    38.1   1
  11   6 -17    16.6    34.2   1
  11   6 -15   215.0    30.6   1
  11   6 -14   -44.0    29.1   1
  11   6 -13   -13.3    20.8   1
  11   6 -12    28.1    19.2   1
  11   6 -10   157.0    18.2   1
  11   6  -9    96.9    14.9   1
  11   6  -8  2269.5    34.0   1
  11   6  -7     2.5    15.7   1
  11   6  -6   -15.2    16.2   1
  11   6  -5  1855.2    43.6   1
  11   6  -4  1799.4    33.0   1
  11   6  -3   314.9    21.0   1
  11   6  -2   438.1    23.2   1
  11   6  -1   253.1    19.1   1
  11   6   1   312.5    21.8   1
  11   6   2     3.0    22.1   1
  11   6   3   -18.8    22.3   1
  11   6   4   -30.7    21.4   1
  11   6   5    45.8    30.6   1
  11   6   6   311.7    28.5   1
  11   6   7   671.4    31.9   1
  11   6   8    -7.4    29.8   1
  11   6   9   -57.4    34.5   1
  11   6  12    92.2    51.7   1
  11   6  13  -125.8    60.9   1
  11   6  14   -55.1    94.2   1
  11   6  17   428.7   204.5   1
  11   7 -19   520.4    67.2   1
  11   7 -18  1618.9    73.1   1
  11   7 -17   218.1    38.8   1
  11   7 -16    39.4    35.0   1
  11   7 -14   272.2    26.6   1
  11   7 -13    -2.4    22.0   1
  11   7 -12   -27.0    23.5   1
  11   7 -10   482.6    21.6   1
  11   7  -9    -2.5    17.5   1
  11   7  -8     5.7    15.5   1
  11   7  -7  2075.7    41.8   1
  11   7  -6   213.4    16.4   1
  11   7  -5    60.5    15.8   1
  11   7  -4   154.6    17.8   1
  11   7  -3  1143.5    29.6   1
  11   7  -2    40.8    16.1   1
  11   7  -1   436.3    20.9   1
  11   7   1   -45.3    20.7   1
  11   7   2   923.5    29.7   1
  11   7   3    77.1    23.6   1
  11   7   4   -62.0    29.9   1
  11   7   5    46.4    21.8   1
  11   7   6   699.8    30.9   1
  11   7   7   301.7    32.3   1
  11   7   8   290.5    32.2   1
  11   7   9    15.9    39.6   1
  11   7  10   -28.8    41.8   1
  11   7  11  1811.1    69.6   1
  11   7  12   -85.9    57.2   1
  11   7  13  -159.7    91.0   1
  11   7  14  -189.4   109.6   1
  11   7  16  -151.3   167.5   1
  11   7  17   850.3   219.6   1
  11   8 -18    85.6    58.3   1
  11   8 -17   -43.2    40.3   1
  11   8 -16  2727.9    67.5   1
  11   8 -15   863.1    40.5   1
  11   8 -14    38.1    50.2   1
  11   8 -13   639.6    31.7   1
  11   8 -12  2154.2    43.7   1
  11   8 -10   306.1    21.7   1
  11   8  -9   986.6    26.4   1
  11   8  -8   659.8    21.5   1
  11   8  -7   413.3    23.6   1
  11   8  -6  2915.8    41.6   1
  11   8  -5    -3.0    15.0   1
  11   8  -4    11.3    16.3   1
  11   8  -3  1727.5    51.1   1
  11   8  -2  1677.6    29.1   1
  11   8  -1  4496.4    72.2   1
  11   8   1   328.1    24.6   1
  11   8   2   174.5    21.2   1
  11   8   3    58.6    28.3   1
  11   8   4    77.6    27.1   1
  11   8   5   442.9    30.0   1
  11   8   6   359.6    31.8   1
  11   8   7   100.0    41.8   1
  11   8   8   -20.5    47.2   1
  11   8   9  1344.8    47.3   1
  11   8  10    86.5    44.3   1
  11   8  12   -71.0    74.2   1
  11   8  13   233.8    94.0   1
  11   8  15   -81.6   144.6   1
  11   9 -16   252.0    41.9   1
  11   9 -15   161.1    37.4   1
  11   9 -14   289.8    31.8   1
  11   9 -13   987.6    85.1   1
  11   9 -12   -13.9    26.9   1
  11   9 -10   647.9    31.2   1
  11   9  -9   844.2    30.1   1
  11   9  -8  1837.3    34.5   1
  11   9  -7   684.5    22.1   1
  11   9  -6    98.4    18.0   1
  11   9  -5   172.0    16.6   1
  11   9  -4     8.8    17.2   1
  11   9  -3  2228.4    36.4   1
  11   9  -2   360.7    22.3   1
  11   9  -1   109.9    18.3   1
  11   9   1   162.2    20.0   1
  11   9   2    29.8    21.3   1
  11   9   3  1191.1    33.9   1
  11   9   4   560.3    29.8   1
  11   9   5   152.6    29.7   1
  11   9   6   568.1    35.0   1
  11   9   7   875.2    44.5   1
  11   9   8   -64.3    41.9   1
  11   9   9   -23.2    43.3   1
  11   9  10    29.9    49.2   1
  11   9  11   562.6    73.4   1
  11   9  12   574.2    79.4   1
  11   9  14  -170.3   120.0   1
  11   9  16    31.6   189.0   1
  11  10 -16    10.4    42.8   1
  11  10 -15   272.7    39.8   1
  11  10 -14   295.7    36.5   1
  11  10 -13   -20.3    32.1   1
  11  10 -10   203.8    26.8   1
  11  10  -9   593.2    30.4   1
  11  10  -8    17.1    20.4   1
  11  10  -7   729.0    24.0   1
  11  10  -6   168.0    19.5   1
  11  10  -5  1061.2    28.7   1
  11  10  -4   220.7    17.0   1
  11  10  -3  1155.0    27.3   1
  11  10  -2    72.1    17.0   1
  11  10  -1    61.6    18.8   1
  11  10   1    23.6    18.8   1
  11  10   2    74.9    22.0   1
  11  10   3   457.3    27.1   1
  11  10   4    -7.4    26.0   1
  11  10   5  1066.8    39.2   1
  11  10   7   -54.3    38.2   1
  11  10   8   269.2    40.8   1
  11  10   9   189.7    45.1   1
  11  10  13    48.0   104.1   1
  11  10  14   126.7   128.9   1
  11  10  15   742.8   163.9   1
  11  11 -14   204.6    45.7   1
  11  11  -9  1428.1    65.8   1
  11  11  -8   153.7    25.9   1
  11  11  -7    62.6    29.8   1
  11  11  -5   631.9    33.9   1
  11  11  -4  1315.6    35.3   1
  11  11  -3    84.7    16.7   1
  11  11  -2     2.3    15.2   1
  11  11  -1     4.3    15.4   1
  11  11   1   914.8    29.7   1
  11  11   2   772.1    31.6   1
  11  11   3   -16.2    27.5   1
  11  12 -15    92.8    45.1   1
  11  12 -14   122.4    40.8   1
  11  12 -13   212.7    38.9   1
  11  12 -12   416.0    37.3   1
  11  12 -10  1257.6    72.3   1
  11  12  -9   392.4    27.0   1
  11  12  -8  3765.1    64.9   1
  11  12  -7   427.9    29.4   1
  11  12  -6   179.9    22.8   1
  11  12  -5   250.4    24.8   1
  11  12  -4  1403.5    31.1   1
  11  12  -3     2.0    16.5   1
  11  12  -2    -2.5    15.1   1
  11  12  -1   367.9    18.7   1
  11  12   2   288.1    21.3   1
  11  12   3   -16.5    25.4   1
  11  12   4   171.8    29.1   1
  11  12   6   -93.8    34.0   1
  11  12   7    62.5    37.3   1
  11  12   8   250.9    43.0   1
  11  12   9   664.0    52.3   1
  11  12  13    60.3   117.2   1
  11  12  14   -63.0   149.4   1
  11  12  15    78.0   178.3   1
  11  12  16  -155.8   215.9   1
  11  13 -15  -127.8    47.7   1
  11  13 -14   -38.9    42.5   1
  11  13 -13   349.1    41.1   1
  11  13 -10    63.5    29.6   1
  11  13  -9    92.4    35.2   1
  11  13  -8   -55.8    26.4   1
  11  13  -7   353.5    24.7   1
  11  13  -6   -10.2    21.7   1
  11  13  -5   484.6    23.4   1
  11  13  -4   318.9    18.9   1
  11  13  -3   255.5    18.7   1
  11  13  -2   170.7    17.9   1
  11  13  -1   214.2    19.0   1
  11  13   1  2564.5    43.6   1
  11  13   2    14.8    22.4   1
  11  13   3   331.8    27.7   1
  11  13   4   -71.3    28.9   1
  11  13   5  1910.8    51.3   1
  11  13   6   -17.5    36.8   1
  11  13   7   277.6    39.4   1
  11  13   8   525.8    47.1   1
  11  13  10   -29.9    74.4   1
  11  13  12    23.6   103.3   1
  11  13  14   102.0   160.0   1
  11  13  15  1119.7   195.7   1
  11  14 -13  -102.0    40.7   1
  11  14 -12   132.0    38.5   1
  11  14 -10   549.6    37.7   1
  11  14  -9   356.7    28.2   1
  11  14  -8   171.3    25.3   1
  11  14  -7   145.5    25.1   1
  11  14  -6   119.8    23.2   1
  11  14  -5   675.3    25.6   1
  11  14  -4    12.7    20.5   1
  11  14  -3   135.9    26.9   1
  11  14  -2   632.8    34.9   1
  11  14  -1    -0.9    23.6   1
  11  14   1   299.3    22.1   1
  11  14   2    36.9    21.6   1
  11  14   3    52.5    27.5   1
  11  14   4   118.5    30.1   1
  11  14   5   109.6    35.3   1
  11  14   6   -31.5    35.5   1
  11  14   7   854.1    46.0   1
  11  14   9   212.3    68.6   1
  11  14  10  -101.6    76.8   1
  11  14  12   -51.4   108.2   1
  11  14  13   -62.6   134.3   1
  11  14  15  -281.1   200.5   1
  11  15 -14   176.5    49.6   1
  11  15 -13  -163.7    43.5   1
  11  15 -12    -6.0    40.0   1
  11  15 -10    74.7    34.6   1
  11  15  -9   137.2    27.5   1
  11  15  -8   120.9    26.9   1
  11  15  -7    77.5    33.2   1
  11  15  -6   158.1    25.9   1
  11  15  -5    68.1    25.8   1
  11  15  -4    14.9    30.2   1
  11  15  -3    19.7    29.1   1
  11  15  -2   611.1    37.1   1
  11  15  -1    50.1    26.5   1
  11  15   1    14.4    21.7   1
  11  15   2    41.2    25.8   1
  11  15   3   447.0    30.7   1
  11  15   5   839.7    39.2   1
  11  15   6   325.4    38.4   1
  11  15   8  1555.0    61.2   1
  11  15   9  -136.2    74.3   1
  11  15  10   336.5    82.9   1
  11  15  12   -86.0   119.2   1
  11  15  13  -309.7   146.8   1
  11  15  14    37.2   176.9   1
  11  16 -13    81.5    46.4   1
  11  16 -12   330.6    44.7   1
  11  16 -10   568.6    42.2   1
  11  16  -9    39.5    29.3   1
  11  16  -8   180.5    29.4   1
  11  16  -7  1401.3    39.1   1
  11  16  -5   872.1    37.3   1
  11  16  -4   -22.1    32.5   1
  11  16  -3   205.0    33.7   1
  11  16  -2   334.3    38.6   1
  11  16  -1   329.3    32.9   1
  11  16   1     4.0    27.9   1
  11  16   2  1027.6    38.9   1
  11  16   3  1372.5    46.6   1
  11  16   4   252.8    31.4   1
  11  16   5   163.3    38.6   1
  11  16   6   253.5    51.6   1
  11  16   7    11.5    46.2   1
  11  16   8   103.2    67.0   1
  11  16   9  3244.4   108.1   1
  11  16  10    92.1    87.0   1
  11  16  12   219.5   131.0   1
  11  16  13  -109.4   160.7   1
  11  16  14   134.6   186.7   1
  11  17 -13   594.3    53.0   1
  11  17 -12    37.0    46.5   1
  11  17 -10   353.6    42.2   1
  11  17  -9   218.0    31.8   1
  11  17  -8  1380.2    45.8   1
  11  17  -7   -72.6    28.6   1
  11  17  -6   193.7    31.4   1
  11  17  -5   601.7    37.3   1
  11  17  -4  1602.2    77.7   1
  11  17  -3    81.4    37.7   1
  11  17  -2   509.9    47.3   1
  11  17  -1    -9.0    33.2   1
  11  17   1  2042.4    58.4   1
  11  17   2   -32.8    33.2   1
  11  17   3   354.9    31.9   1
  11  17   4   -42.4    32.9   1
  11  17   6    99.0    41.8   1
  11  17   7    22.7    47.5   1
  11  17   8  1124.6    76.2   1
  11  17   9   380.1    82.5   1
  11  17  10  -217.8    92.2   1
  11  17  12   -86.8   143.1   1
  11  17  13  -360.1   168.8   1
  11  17  14  -492.4   200.9   1
  11  18 -14  -160.3    59.3   1
  11  18 -13    23.6    52.9   1
  11  18 -12   -51.0    50.3   1
  11  18 -10   -84.0    46.2   1
  11  18  -9  1046.6    55.6   1
  11  18  -8     5.4    32.6   1
  11  18  -7   421.5    35.0   1
  11  18  -6   -63.9    43.8   1
  11  18  -3    66.9    59.5   1
  11  18  -1   -55.2    62.2   1
  11  18   1  2209.9    72.1   1
  11  18   2  1905.2    57.6   1
  11  18   3   567.9    39.1   1
  11  18   4   354.2    42.4   1
  11  18   5   347.5    43.7   1
  11  18   6  3887.3    92.0   1
  11  18   7   -35.1    51.3   1
  11  18   8   -97.7    74.2   1
  11  18   9   817.5    92.4   1
  11  18  10  2326.9   127.3   1
  11  18  12   -40.5   149.6   1
  11  19 -13   295.9    62.3   1
  11  19 -12  -114.5    54.7   1
  11  19  -9    16.4    50.0   1
  11  19  -8   419.9    38.4   1
  11  19  -6   -24.3    50.8   1
  11  19  -5   675.3    85.1   1
  11  19   2   574.1    47.0   1
  11  19   3   -12.8    37.4   1
  11  19   4   428.7    42.8   1
  11  19   5    53.3    44.4   1
  11  19   6   517.9    52.5   1
  11  19   7   442.8    57.5   1
  11  19   9   167.9    97.8   1
  11  19  10   295.6   118.9   1
  11  19  12  -410.3   163.4   1
  11  19  13  -264.3   197.9   1
  11  20 -14  -140.5    67.9   1
  11  20 -13   358.1    66.3   1
  11  20 -12   -35.3    61.8   1
  11  20  -8    87.2    57.0   1
  11  20  -7   -35.1    57.0   1
  11  20  -6   330.3    65.6   1
  11  20   3  1303.3    65.0   1
  11  20   4   -70.2    45.4   1
  11  20   5   -73.1    50.1   1
  11  20   6    14.5    55.6   1
  11  20   7   -34.4    80.5   1
  11  20   8   -29.5    96.3   1
  11  20  10   322.2   130.3   1
  11  20  12  -112.3   173.7   1
  11  21 -14   155.5    73.7   1
  11  21 -13  7208.2   163.2   1
  11  21 -12    31.6    64.9   1
  11  21  -7     7.3    70.9   1
  11  21  -6   162.1    75.9   1
  11  21   4   -11.0    52.4   1
  11  21   5   136.8    55.3   1
  11  21   6    62.1    60.7   1
  11  21   7    54.6    91.7   1
  11  21   8   139.8   107.3   1
  11  21   9  1246.1   131.5   1
  11  22 -12   -67.1    72.3   1
  11  22   6  1273.6    78.1   1
  11  23   5  -125.0    98.0   1
  11  23   6   -98.3    75.1   1
  11  23   7   -26.6   115.0   1
  11  23   8   -39.0   131.7   1
  11  23   9   499.4   148.8   1
  11  24   6   -80.7    86.5   1
  11  24   7   146.6   134.7   1
  11  24   8   126.9   152.0   1
  11  25   9   433.4   152.7   1
  12   0 -17     2.9    37.9   1
  12   0  -7     5.2    27.3   1
  12   0  -5    -8.9    27.6   1
  12   0  -1    29.2    31.5   1
  12   1 -25   359.6   117.6   1
  12   1 -22   218.0    65.0   1
  12   1 -21     8.2    55.3   1
  12   1 -20    51.3    40.9   1
  12   1 -19    24.3    35.7   1
  12   1 -18   358.2    33.2   1
  12   1 -17   -48.7    26.9   1
  12   1 -16   171.6    21.6   1
  12   1 -15   -20.1    17.3   1
  12   1 -14   638.8    19.5   1
  12   1 -13   271.6    25.5   1
  12   1 -10   530.7    19.3   1
  12   1  -9   186.1    17.4   1
  12   1  -8  1078.1    24.0   1
  12   1  -7   348.2    20.6   1
  12   1  -6  1142.4    26.2   1
  12   1  -5  1186.2    24.9   1
  12   1  -4    21.9    17.4   1
  12   1  -3  4402.0    65.8   1
  12   1  -2     4.4    19.9   1
  12   1   1  2529.7    75.6   1
  12   1   2    60.0    27.5   1
  12   1   3   -67.3    29.0   1
  12   1   4   968.4    35.6   1
  12   1   5  1319.9    38.0   1
  12   1   6    14.8    24.8   1
  12   1   7    73.0    26.6   1
  12   1   8   453.2    28.9   1
  12   1   9   637.7    36.5   1
  12   1  10   329.3    43.0   1
  12   1  14    32.7    81.2   1
  12   1  15  -117.7    88.6   1
  12   1  16  1042.2   114.6   1
  12   2 -21  -125.1    55.7   1
  12   2 -19   -62.0    43.5   1
  12   2 -17   -50.0    26.5   1
  12   2 -15   405.7    19.8   1
  12   2 -13    10.4    16.1   1
  12   2 -11    28.1    20.9   1
  12   2  -9  4207.7    58.5   1
  12   2  -7   216.2    18.7   1
  12   2  -5    60.5    17.3   1
  12   2  -3   195.7    18.6   1
  12   2  -1  1005.5    36.8   1
  12   2   1    33.3    30.4   1
  12   2   3  1621.3    44.5   1
  12   2   5  1018.0    41.2   1
  12   2   7    14.4    25.0   1
  12   2   9   355.5    35.0   1
  12   2  11   -49.0    51.6   1
  12   2  13   516.0    67.4   1
  12   2  15   875.9    94.5   1
  12   3 -20    -4.4    49.9   1
  12   3 -19   875.6    50.8   1
  12   3 -17   -20.5    28.7   1
  12   3 -16   535.1    28.9   1
  12   3 -14  1346.5    25.0   1
  12   3 -13    14.7    16.3   1
  12   3 -11   188.2    17.5   1
  12   3 -10   215.7    16.8   1
  12   3  -8   570.9    21.7   1
  12   3  -7  1498.1    26.8   1
  12   3  -5  8552.1   128.2   1
  12   3  -4  3174.0    52.1   1
  12   3  -2    -0.0    19.1   1
  12   3  -1  1742.6    42.9   1
  12   3   1   668.0    30.5   1
  12   3   2    35.4    29.5   1
  12   3   4   753.0    29.1   1
  12   3   5   898.8    32.1   1
  12   3   7   -41.0    26.1   1
  12   3   8    43.1    29.2   1
  12   3  10  2252.3    56.4   1
  12   3  11    14.1    46.0   1
  12   3  13  -132.6    67.0   1
  12   3  14   -56.9    71.2   1
  12   3  16  1119.2   119.8   1
  12   4 -21     5.7    57.5   1
  12   4 -19   178.5    44.9   1
  12   4 -17   560.4    33.6   1
  12   4 -15    26.7    23.1   1
  12   4 -13   984.6    23.7   1
  12   4 -11    82.3    15.7   1
  12   4  -9   154.8    17.3   1
  12   4  -7   635.8    19.8   1
  12   4  -5  1114.9    24.7   1
  12   4  -3    40.6    18.1   1
  12   4  -1   637.6    24.1   1
  12   4   1    16.7    25.7   1
  12   4   3   246.3    25.3   1
  12   4   5    26.3    22.4   1
  12   4   7   436.9    33.0   1
  12   4   9   -90.9    34.4   1
  12   4  11   181.7    48.5   1
  12   4  13  -130.9    70.3   1
  12   4  15  -161.4    94.4   1
  12   5 -20   -33.5    52.7   1
  12   5 -19   690.3    55.2   1
  12   5 -18    59.3    40.0   1
  12   5 -17    18.2    35.5   1
  12   5 -16    22.0    27.3   1
  12   5 -15   896.2    35.1   1
  12   5 -14   318.4    27.1   1
  12   5 -13   569.5    23.9   1
  12   5 -11   615.2    22.1   1
  12   5 -10   318.2    17.1   1
  12   5  -8  1268.1    27.1   1
  12   5  -7    11.7    19.5   1
  12   5  -5   114.3    17.6   1
  12   5  -4   488.7    22.9   1
  12   5  -3  1405.6    29.8   1
  12   5  -2     5.2    19.3   1
  12   5  -1  1156.3    28.8   1
  12   5   1   -47.1    25.8   1
  12   5   2   -64.1    27.6   1
  12   5   3    34.5    22.4   1
  12   5   4    51.5    23.7   1
  12   5   5    -8.4    24.7   1
  12   5   6     1.9    27.4   1
  12   5   7   854.6    60.0   1
  12   5   8   408.4    33.7   1
  12   5   9    57.6    36.2   1
  12   5  10    41.7    43.2   1
  12   5  11    75.0    50.5   1
  12   5  13     9.9    72.3   1
  12   5  14    66.3    87.6   1
  12   5  15   145.7   114.1   1
  12   5  16  -163.6   177.4   1
  12   6 -19     6.6    48.7   1
  12   6 -17     2.9    39.9   1
  12   6 -13   -25.6    23.6   1
  12   6 -11   138.4    19.4   1
  12   6  -7   101.8    15.9   1
  12   6  -5   398.0    19.3   1
  12   6  -1   543.2    23.6   1
  12   6   1  1645.6    37.5   1
  12   6   5   -23.7    25.8   1
  12   6   7   803.8    39.3   1
  12   6  11    -9.3    52.7   1
  12   6  13    16.0    76.4   1
  12   7 -19    68.6    53.8   1
  12   7 -18   160.3    47.9   1
  12   7 -17   293.5    45.8   1
  12   7 -16   517.5    38.1   1
  12   7 -15   172.6    32.4   1
  12   7 -14  2171.0    51.3   1
  12   7 -13   582.5    30.6   1
  12   7 -11   382.5    24.8   1
  12   7 -10   622.2    26.1   1
  12   7  -9     4.4    17.5   1
  12   7  -8   214.0    17.6   1
  12   7  -7   523.7    21.2   1
  12   7  -5    -6.7    23.1   1
  12   7  -4  3334.2    47.4   1
  12   7  -3    10.9    18.0   1
  12   7  -2   822.0    25.3   1
  12   7  -1   550.3    24.0   1
  12   7   1    15.8    22.6   1
  12   7   2   -38.7    22.8   1
  12   7   3   -16.3    24.3   1
  12   7   4    -6.6    34.2   1
  12   7   5   -34.1    34.4   1
  12   7   6    16.0    34.6   1
  12   7   7   270.2    34.4   1
  12   7   8  2336.5    63.8   1
  12   7   9   867.0    51.3   1
  12   7  10   -29.9    66.0   1
  12   7  11    76.2    62.9   1
  12   7  13  -178.2    88.9   1
  12   7  15  1764.3   178.5   1
  12   8 -19    20.9    54.2   1
  12   8 -17   -64.1    44.1   1
  12   8 -15  -107.8    35.7   1
  12   8 -13   291.0    33.4   1
  12   8 -11   -85.0    24.2   1
  12   8  -9   288.0    20.1   1
  12   8  -7   303.9    18.1   1
  12   8  -5   -22.2    18.5   1
  12   8  -3  8109.6   101.3   1
  12   8  -1  1528.3    30.8   1
  12   8   1  1274.1    28.9   1
  12   8   3   251.7    25.3   1
  12   8   5     8.4    25.3   1
  12   8   7    40.4    35.2   1
  12   8   9   552.2    55.5   1
  12   8  11    75.6    66.1   1
  12   8  13  -172.8    90.8   1
  12   8  15  -114.3   184.4   1
  12   9 -17   228.8    47.6   1
  12   9 -16   -32.7    40.5   1
  12   9 -14   189.0    38.4   1
  12   9 -13   572.4    48.9   1
  12   9 -11   320.6    29.8   1
  12   9 -10  -117.8    27.0   1
  12   9  -8   290.6    21.5   1
  12   9  -7    48.8    19.6   1
  12   9  -5  1078.7    26.7   1
  12   9  -4     4.0    17.4   1
  12   9  -2   232.1    21.5   1
  12   9  -1    75.0    24.1   1
  12   9   1  2617.2    40.6   1
  12   9   2    15.6    21.4   1
  12   9   4   323.8    33.0   1
  12   9   5  1388.3    46.1   1
  12   9   7   -73.5    41.2   1
  12   9   8    -7.9    52.3   1
  12   9  10  -184.9    58.6   1
  12   9  11    81.4    69.8   1
  12   9  13  -125.8   120.6   1
  12   9  14  -154.7   152.0   1
  12  10 -17  1735.4    65.7   1
  12  10 -15    27.4    42.6   1
  12  10 -13    12.5    37.0   1
  12  10 -11    13.0    30.8   1
  12  10  -9    16.4    23.3   1
  12  10  -7   588.6    24.6   1
  12  10  -5   -22.3    18.8   1
  12  10  -3   359.1    19.3   1
  12  10  -1   651.1    28.0   1
  12  10   1   -38.3    20.8   1
  12  10   3   -22.8    25.1   1
  12  10   5  1140.9    45.1   1
  12  10   7   154.8    56.0   1
  12  10   9  1059.4    71.0   1
  12  10  11   323.3    75.5   1
  12  10  13   -41.2   124.9   1
  12  10  15  -357.7   196.7   1
  12  11 -17   840.4    59.0   1
  12  11 -16   473.8    54.3   1
  12  11 -15    37.7    44.0   1
  12  11 -14   -20.0    41.5   1
  12  11 -11    96.2    32.3   1
  12  11 -10    63.3    26.8   1
  12  11  -9   259.4    24.5   1
  12  11  -8    50.1    21.5   1
  12  11  -7    74.2    22.8   1
  12  11  -5    96.4    21.4   1
  12  11  -4    -1.5    18.0   1
  12  11  -3   -21.7    16.1   1
  12  11  -2    -4.7    16.0   1
  12  11  -1   152.8    25.8   1
  12  11   1   307.5    24.2   1
  12  11   2   149.3    24.0   1
  12  11   3   102.5    25.9   1
  12  11   4    47.8    32.6   1
  12  11   5    41.3    36.4   1
  12  11   7  2644.0    73.4   1
  12  11   8    55.4    57.3   1
  12  11   9   124.9    59.1   1
  12  11  10   341.0    70.6   1
  12  11  12     6.8   130.2   1
  12  11  13   457.5   139.2   1
  12  11  14   772.7   179.3   1
  12  11  15   -18.4   214.7   1
  12  12 -17    33.8    57.3   1
  12  12 -13   225.1    60.5   1
  12  12 -11   120.5    55.4   1
  12  12  -7   870.3    34.0   1
  12  12  -5   -31.0    21.2   1
  12  12  -1   293.5    21.1   1
  12  12   1   247.8    38.5   1
  12  13 -17  1046.2    70.0   1
  12  13 -16   942.0    62.7   1
  12  13 -15  -104.9    50.9   1
  12  13 -14   922.0    54.2   1
  12  13 -13   690.3    49.5   1
  12  13 -10    51.7    30.7   1
  12  13  -9   513.2    31.0   1
  12  13  -8   229.2    28.6   1
  12  13  -7   838.8    32.7   1
  12  13  -5   402.1    23.1   1
  12  13  -4   -34.3    21.5   1
  12  13  -3   123.6    21.1   1
  12  13  -2   541.7    22.7   1
  12  13   1   264.3    31.0   1
  12  13   2    43.8    24.9   1
  12  13   3   893.1    40.7   1
  12  13   4   -14.8    35.7   1
  12  13   5    15.7    40.8   1
  12  13   6   -31.3    46.7   1
  12  13   7   885.4    58.7   1
  12  13   8    66.8    55.0   1
  12  13   9   286.6    66.0   1
  12  13  10    82.6    72.3   1
  12  13  14   767.3   204.6   1
  12  14 -17   -79.3    66.2   1
  12  14 -15    78.8    54.9   1
  12  14 -13  1327.9    64.9   1
  12  14 -11   245.5    41.2   1
  12  14  -9   421.1    32.0   1
  12  14  -7  1602.1    46.3   1
  12  14  -5   106.6    22.1   1
  12  14  -3    73.8    22.3   1
  12  14  -1   497.5    26.3   1
  12  14   3   595.3    37.6   1
  12  14   5   190.5    44.4   1
  12  14   7  1387.8    60.8   1
  12  14   9    53.8    67.3   1
  12  14  11   462.6   118.2   1
  12  14  13   796.8   180.4   1
  12  15 -14    68.9    54.6   1
  12  15 -13    72.4    50.4   1
  12  15 -11    57.6    42.2   1
  12  15 -10    -8.6    33.2   1
  12  15  -8   449.2    33.9   1
  12  15  -7   905.5    38.8   1
  12  15  -5    22.5    25.0   1
  12  15  -4   481.1    31.2   1
  12  15  -2   290.5    37.5   1
  12  15  -1   -11.3    26.4   1
  12  15   1   123.1    27.0   1
  12  15   2   234.6    29.0   1
  12  15   4   848.3    49.2   1
  12  15   5  1050.8    55.0   1
  12  15   7   -39.2    52.1   1
  12  15   8   957.5    66.9   1
  12  15  10  -147.1   106.0   1
  12  15  11    23.4   123.1   1
  12  15  13  -126.4   185.9   1
  12  16 -15   346.2    66.2   1
  12  16 -13  1049.1    62.3   1
  12  16 -11   140.1    48.5   1
  12  16  -9   139.5    34.2   1
  12  16  -7   814.4    38.3   1
  12  16  -5     4.0    32.3   1
  12  16  -3   -19.7    40.0   1
  12  16  -1   241.3    40.1   1
  12  16   1   460.5    31.1   1
  12  16   3   -54.8    38.9   1
  12  16   5   -99.1    49.6   1
  12  16   7  -170.0    56.4   1
  12  16   9   -48.6    71.8   1
  12  16  11   695.4   142.1   1
  12  16  13  -302.8   199.7   1
  12  17 -15  2969.7    97.8   1
  12  17 -14  1969.2    79.5   1
  12  17 -13  -125.9    58.6   1
  12  17 -11    69.3    51.3   1
  12  17 -10    63.7    36.6   1
  12  17  -9    14.9    34.5   1
  12  17  -8    11.5    34.5   1
  12  17  -7     6.2    36.4   1
  12  17  -5   349.5    38.7   1
  12  17  -4   988.1    58.6   1
  12  17  -3   801.0    55.4   1
  12  17  -2     6.9    57.0   1
  12  17  -1   -17.5    44.3   1
  12  17   1     6.7    32.4   1
  12  17   2   577.0    43.6   1
  12  17   3    -7.5    41.1   1
  12  17   4    -6.7    45.7   1
  12  17   6   749.6    56.7   1
  12  17   7   651.0    62.7   1
  12  17   8    31.3    68.1   1
  12  17   9  -118.5   104.7   1
  12  17  10  -275.2   121.1   1
  12  17  11   -77.9   148.6   1
  12  17  13   425.3   207.4   1
  12  18 -13  -121.1    64.4   1
  12  18 -11  1079.8    68.9   1
  12  18  -7   470.2    41.9   1
  12  18  -5   260.2    53.5   1
  12  18  -1    52.0    54.0   1
  12  18   1    10.0    43.0   1
  12  18   5    57.3    50.6   1
  12  18   7   -18.8    64.6   1
  12  18  11  1203.0   165.9   1
  12  19 -15  6003.9   153.9   1
  12  19 -14  3516.6   117.8   1
  12  19 -13   217.7    73.3   1
  12  19 -10   107.5    61.2   1
  12  19  -9   362.5    45.1   1
  12  19  -7   198.9    45.6   1
  12  19  -4  -206.8   104.3   1
  12  19  -1   -16.5    62.0   1
  12  19   1  1699.5    75.1   1
  12  19   2     7.3    49.3   1
  12  19   3     6.2    46.1   1
  12  19   4  1270.7    60.6   1
  12  19   5   760.0    59.3   1
  12  19   6   446.3    63.3   1
  12  19   7  3330.8   110.4   1
  12  19   8   222.1    80.2   1
  12  19   9   537.4   129.4   1
  12  19  10  1681.3   163.5   1
  12  20 -13   167.7    76.5   1
  12  20  -9   357.7    49.1   1
  12  20  -7    18.6    71.4   1
  12  20  -1   224.3   128.8   1
  12  20   3   421.3    52.6   1
  12  20   5   656.7    65.1   1
  12  20   7  2376.2    97.6   1
  12  20   9  1051.9   145.2   1
  12  20  11  4279.7   235.5   1
  12  21 -14  5666.2   164.2   1
  12  21 -13   288.4    87.2   1
  12  21  -8   335.7    86.2   1
  12  21  -7   -19.4    85.7   1
  12  21   4   182.3    61.2   1
  12  21   5   461.0    68.3   1
  12  21   7    80.4    84.2   1
  12  21  10  -299.0   178.1   1
  12  21  11   164.9   206.2   1
  12  22  -7    -1.9   100.8   1
  12  22   5  -108.4    78.2   1
  12  22   7  -104.5    94.3   1
  12  22   9   273.2   170.4   1
  12  23   5   284.1    92.5   1
  12  23   7  -136.6   106.7   1
  12  25   6   351.8   129.9   1
  13   0 -18  4524.0   140.1   1
  13   0 -17     4.1    32.5   1
  13   0 -16   -44.3    28.8   1
  13   0 -15    25.5    26.9   1
  13   0 -12  1039.9    35.6   1
  13   0  -9   -34.6    27.3   1
  13   0  -6    17.4    33.1   1
  13   0  -2   589.5    41.9   1
  13   0   4    53.9    41.0   1
  13   0   8  1135.2    60.9   1
  13   0   9   -80.2    63.6   1
  13   0  10   -65.4    76.5   1
  13   0  11    53.6    89.6   1
  13   1 -22    18.6    64.8   1
  13   1 -21   177.5    56.0   1
  13   1 -20   129.6    48.4   1
  13   1 -19   477.5    55.7   1
  13   1 -18   599.5    34.6   1
  13   1 -17   725.4    28.6   1
  13   1 -16   399.0    23.6   1
  13   1 -15   -71.2    19.5   1
  13   1 -11   661.3    21.7   1
  13   1 -10   650.7    21.4   1
  13   1  -9   912.2    25.5   1
  13   1  -8  1389.6    27.3   1
  13   1  -7   175.7    28.8   1
  13   1  -6    37.8    19.0   1
  13   1  -5     7.1    19.4   1
  13   1  -4   138.1    20.4   1
  13   1  -3  1506.0    31.4   1
  13   1  -2   201.3    24.8   1
  13   1   2   345.5    32.1   1
  13   1   3   478.0    29.8   1
  13   1   4    -3.2    28.6   1
  13   1   5   187.9    30.9   1
  13   1   6   321.8    34.7   1
  13   1   7    -4.3    30.3   1
  13   1   8  -104.9    46.7   1
  13   1   9   -44.8    41.0   1
  13   1  10   435.6    50.3   1
  13   1  11  -132.7    64.0   1
  13   1  15  -110.3   109.9   1
  13   2 -21   323.4    72.9   1
  13   2 -20  1384.5    63.1   1
  13   2 -19   557.6    46.3   1
  13   2 -18     1.7    36.6   1
  13   2 -17   180.5    28.4   1
  13   2 -16   260.3    23.2   1
  13   2 -15   -17.1    21.3   1
  13   2 -14    89.0    18.3   1
  13   2 -12    33.2    18.1   1
  13   2 -11   286.9    22.6   1
  13   2 -10   317.9    17.8   1
  13   2  -9   510.9    19.6   1
  13   2  -8  2048.4    33.4   1
  13   2  -7    83.9    18.6   1
  13   2  -6  1149.0    26.3   1
  13   2  -5   -34.1    19.1   1
  13   2  -4  2499.7    40.7   1
  13   2  -3   602.2    29.2   1
  13   2  -2    66.9    32.8   1
  13   2  -1   642.7    38.4   1
  13   2   1   673.5    33.4   1
  13   2   2   525.8    44.6   1
  13   2   3   673.0    32.1   1
  13   2   4    36.5    29.2   1
  13   2   5   204.2    30.8   1
  13   2   6   -13.2    29.9   1
  13   2   7    92.5    32.4   1
  13   2   8   384.9    35.4   1
  13   2   9  -108.0    41.5   1
  13   2  10   436.9    56.1   1
  13   2  12    18.2    84.5   1
  13   2  13   465.6   119.4   1
  13   2  14  1020.7   113.1   1
  13   3 -23   430.5    93.0   1
  13   3 -22    80.5    78.4   1
  13   3 -21   816.2    77.2   1
  13   3 -20    64.3    61.0   1
  13   3 -19    30.9    45.3   1
  13   3 -18    36.2    39.6   1
  13   3 -17  1210.7    46.2   1
  13   3 -16   423.8    35.8   1
  13   3 -15   778.5    26.1   1
  13   3 -14  1930.8    33.9   1
  13   3 -12     2.1    15.9   1
  13   3 -11     6.4    15.7   1
  13   3 -10    51.7    19.2   1
  13   3  -9    79.6    18.0   1
  13   3  -8   499.6    22.6   1
  13   3  -7    67.5    17.9   1
  13   3  -6  1179.7    27.2   1
  13   3  -5   401.0    27.6   1
  13   3  -4   171.6    20.6   1
  13   3  -3  1432.0    43.3   1
  13   3  -2   379.2    25.8   1
  13   3  -1  1228.8    46.6   1
  13   3   1   595.7    38.6   1
  13   3   2   102.6    28.4   1
  13   3   4   -53.2    27.2   1
  13   3   5  1359.4    70.4   1
  13   3   6   -48.1    30.4   1
  13   3   7  3350.1    87.1   1
  13   3   8    72.0    36.9   1
  13   3   9    -5.2    41.6   1
  13   3  10   219.1    57.7   1
  13   3  11   194.8    66.7   1
  13   3  12   457.8    72.0   1
  13   3  14  -217.4   109.0   1
  13   3  15   479.8   117.3   1
  13   4 -23  1714.5   108.8   1
  13   4 -21   340.6    74.3   1
  13   4 -20   694.1    66.3   1
  13   4 -19  1044.7    62.9   1
  13   4 -18    39.9    41.6   1
  13   4 -16    14.2    30.6   1
  13   4 -15   811.8    27.6   1
  13   4 -14    47.2    19.8   1
  13   4 -12   649.7    20.0   1
  13   4 -11   273.1    19.3   1
  13   4 -10   925.5    22.8   1
  13   4  -9   728.3    24.2   1
  13   4  -8  1013.1    24.5   1
  13   4  -7    43.7    18.2   1
  13   4  -6   578.7    22.7   1
  13   4  -5  1076.8    25.5   1
  13   4  -3   855.0    29.6   1
  13   4  -2    23.4    23.7   1
  13   4  -1   -75.9    25.3   1
  13   4   1   -46.2    28.9   1
  13   4   2    31.0    28.1   1
  13   4   3  1627.3    43.8   1
  13   4   5   671.4    42.1   1
  13   4   6    79.6    31.3   1
  13   4   7   119.3    33.9   1
  13   4   8   717.4    41.4   1
  13   4   9   163.6    43.7   1
  13   4  10    88.1    51.1   1
  13   4  11   -49.1    81.6   1
  13   4  12   140.9    75.4   1
  13   4  14   694.0   119.3   1
  13   4  15  1167.7   154.6   1
  13   5 -22   813.8    90.8   1
  13   5 -20  1074.6    71.4   1
  13   5 -19    50.6    56.2   1
  13   5 -18     2.3    49.7   1
  13   5 -17    80.7    37.5   1
  13   5 -16   -54.5    36.5   1
  13   5 -15    77.2    31.9   1
  13   5 -14   673.7    27.3   1
  13   5 -12   121.6    18.2   1
  13   5 -11     5.6    16.5   1
  13   5 -10   340.6    18.8   1
  13   5  -9  1412.6    29.6   1
  13   5  -8  1709.5    41.9   1
  13   5  -7   252.0    19.4   1
  13   5  -6    27.5    21.2   1
  13   5  -5   645.2    28.3   1
  13   5  -4   201.4    22.7   1
  13   5  -3   -10.9    20.7   1
  13   5  -2     2.7    23.8   1
  13   5  -1   -13.3    26.7   1
  13   5   1    78.8    26.0   1
  13   5   2   374.7    30.7   1
  13   5   3   140.1    26.9   1
  13   5   4   681.9    51.6   1
  13   5   5    55.2    27.8   1
  13   5   6    -1.7    31.5   1
  13   5   7  1636.6    57.2   1
  13   5   8   -28.3    49.9   1
  13   5   9   299.3    45.8   1
  13   5  10  -180.0    51.9   1
  13   5  11   341.4    65.6   1
  13   5  12   263.2    78.8   1
  13   5  14    29.5   120.9   1
  13   5  15   943.1   152.7   1
  13   6 -22   -71.3    82.9   1
  13   6 -21   164.7    74.8   1
  13   6 -19   543.6    62.1   1
  13   6 -18   434.1    55.7   1
  13   6 -17     2.6    43.5   1
  13   6 -16   314.7    40.2   1
  13   6 -15   261.2    35.3   1
  13   6 -14   -49.4    25.7   1
  13   6 -12   186.5    21.7   1
  13   6 -11   333.5    19.2   1
  13   6 -10   202.8    19.4   1
  13   6  -9    84.2    17.4   1
  13   6  -8   -24.3    18.2   1
  13   6  -7    -5.2    24.1   1
  13   6  -6   212.0    19.7   1
  13   6  -5   190.4    20.3   1
  13   6  -4  1949.7    35.7   1
  13   6  -3    92.6    19.9   1
  13   6  -2   471.7    24.7   1
  13   6  -1    72.4    23.2   1
  13   6   1   -29.4    25.9   1
  13   6   2   289.5    29.3   1
  13   6   3   -11.4    25.9   1
  13   6   4   -21.8    27.0   1
  13   6   5   233.9    29.0   1
  13   6   8   361.9    42.1   1
  13   6   9   -78.2    45.8   1
  13   6  10   120.0    73.8   1
  13   6  11  -176.2    68.8   1
  13   6  12  1814.2   112.5   1
  13   6  14   374.1   127.9   1
  13   6  15  -139.7   156.7   1
  13   7 -21   200.2    78.2   1
  13   7 -20   375.5    70.9   1
  13   7 -18   409.5    57.9   1
  13   7 -17    25.0    46.3   1
  13   7 -16   -28.2    41.5   1
  13   7 -15   785.4    43.4   1
  13   7 -14   157.0    29.9   1
  13   7 -12   -10.9    24.7   1
  13   7 -11   666.6    25.1   1
  13   7 -10  1503.7    32.2   1
  13   7  -9  2038.4    33.8   1
  13   7  -8   824.8    22.4   1
  13   7  -7   454.5    23.0   1
  13   7  -5    59.5    20.1   1
  13   7  -4   176.4    21.0   1
  13   7  -3  2993.6    55.6   1
  13   7  -2    -4.7    21.0   1
  13   7  -1   868.7    30.3   1
  13   7   1   235.2    25.5   1
  13   7   2   101.7    27.9   1
  13   7   3   572.6    33.7   1
  13   7   4   211.9    27.4   1
  13   7   5    -7.6    28.7   1
  13   7   6   336.2    50.9   1
  13   7   8   -74.5    48.7   1
  13   7   9   -48.3    56.7   1
  13   7  10   137.7    68.0   1
  13   7  11   423.2    96.8   1
  13   7  12   722.0   116.8   1
  13   7  14     2.4   133.6   1
  13   8 -21    42.6    81.6   1
  13   8 -20   141.3    74.5   1
  13   8 -19    48.0    66.3   1
  13   8 -17   -71.6    49.6   1
  13   8 -16   -64.2    43.2   1
  13   8 -15   -99.7    38.2   1
  13   8 -14   191.7    40.4   1
  13   8 -12   -46.3    27.2   1
  13   8 -11   801.8    31.2   1
  13   8 -10    17.6    21.0   1
  13   8  -9    30.1    28.4   1
  13   8  -8    57.2    20.0   1
  13   8  -7   129.8    20.2   1
  13   8  -6   219.2    22.8   1
  13   8  -5   -12.9    38.4   1
  13   8  -4   657.8    24.6   1
  13   8  -3   297.2    22.5   1
  13   8  -2    58.8    20.6   1
  13   8  -1  1598.7    31.5   1
  13   8   1    52.6    24.2   1
  13   8   2   -40.6    25.3   1
  13   8   3   230.3    31.9   1
  13   8   4    12.1    35.9   1
  13   8   5  1978.9    69.7   1
  13   8   6   602.3    40.0   1
  13   8   7   -59.1    45.1   1
  13   8   8    12.1    52.4   1
  13   8   9  1150.0    93.0   1
  13   8  10     8.5    79.0   1
  13   8  11   165.5    98.7   1
  13   8  12  -163.9    99.3   1
  13   8  14  -293.7   147.8   1
  13   9 -20    94.1    78.6   1
  13   9 -19   297.0    70.9   1
  13   9 -18   714.9    65.9   1
  13   9 -16   504.3    50.5   1
  13   9 -15   259.9    47.2   1
  13   9 -14   -72.9    41.4   1
  13   9 -12   671.7    33.8   1
  13   9 -11   900.3    33.8   1
  13   9 -10  1116.1    31.2   1
  13   9  -8   -44.2    24.2   1
  13   9  -7   -18.3    20.2   1
  13   9  -6   -17.5    18.6   1
  13   9  -5   -14.1    18.0   1
  13   9  -3   289.4    19.8   1
  13   9  -2   -40.5    20.2   1
  13   9  -1  1355.7    30.0   1
  13   9   1   675.3    32.8   1
  13   9   3   282.0    30.4   1
  13   9   5   -47.4    37.2   1
  13   9   6   179.8    48.8   1
  13   9   7    44.2    54.3   1
  13   9   8   404.5    62.9   1
  13   9   9   644.2    72.8   1
  13   9  10  -263.6    85.0   1
  13   9  11  -226.0    86.6   1
  13   9  12   739.1   105.1   1
  13   9  14  -300.2   150.1   1
  13  10 -20   134.7    81.7   1
  13  10 -18  1050.9    70.8   1
  13  10 -17   234.3    59.7   1
  13  10 -15   167.6    48.5   1
  13  10 -14    12.3    44.6   1
  13  10 -12    92.1    32.2   1
  13  10 -11   345.7    34.0   1
  13  10  -9   -17.9    25.9   1
  13  10  -8    94.7    26.9   1
  13  10  -7    -4.9    22.2   1
  13  10  -6   643.6    24.6   1
  13  10  -5   165.7    19.6   1
  13  10  -4   130.5    19.2   1
  13  10  -3   644.5    29.2   1
  13  10  -2  1621.0    31.3   1
  13  10  -1   787.4    31.4   1
  13  10   1    93.3    29.2   1
  13  10   2   351.6    28.8   1
  13  10   3   144.9    53.7   1
  13  10   4  1367.9    45.5   1
  13  10   5    65.9    45.3   1
  13  10   6   354.4    51.7   1
  13  10   7   168.6    58.0   1
  13  10   9   -78.7    79.5   1
  13  10  10   386.7   113.8   1
  13  10  11   597.7    98.4   1
  13  10  12   544.0   107.5   1
  13  11 -19   524.8    81.8   1
  13  11 -18   -40.0    68.0   1
  13  11 -17    84.8    64.4   1
  13  11 -16   189.6    57.6   1
  13  11 -15    83.7    51.2   1
  13  11 -14   196.8    53.7   1
  13  11 -12   -24.2    34.6   1
  13  11 -11  1213.5    43.7   1
  13  11 -10   245.1    29.8   1
  13  11  -9   218.8    28.2   1
  13  11  -8    10.1    25.7   1
  13  11  -7   170.2    21.7   1
  13  11  -6   -37.7    22.3   1
  13  11  -5   874.0    26.8   1
  13  11  -4   147.1    19.1   1
  13  11  -3   654.2    23.2   1
  13  11  -2   308.2    22.4   1
  13  11  -1   251.2    30.6   1
  13  11   1   115.5    25.8   1
  13  11   2   189.4    32.4   1
  13  11   3    19.3    30.7   1
  13  11   4  1174.6    52.2   1
  13  11   5   -21.5    44.9   1
  13  11   6   509.1    56.8   1
  13  11   7   -63.4    59.8   1
  13  11   8  -194.3    67.9   1
  13  11   9  1267.1    93.7   1
  13  11  10   127.9    84.1   1
  13  11  12   109.2   111.0   1
  13  12 -19  -127.2    83.7   1
  13  12 -18   164.7    73.8   1
  13  12 -17   -99.9    66.8   1
  13  12 -16   328.9    64.8   1
  13  12 -15   -18.2    55.8   1
  13  12 -11   478.2    37.2   1
  13  12 -10   -33.4    30.3   1
  13  12  -9   321.1    30.5   1
  13  12  -8   120.7    27.0   1
  13  12  -7   250.8    26.8   1
  13  12  -6   620.8    31.1   1
  13  12  -5   -16.1    25.4   1
  13  12  -4   -37.1    21.0   1
  13  12  -3    17.9    19.4   1
  13  12  -2   658.3    24.8   1
  13  12  -1  2013.4    63.2   1
  13  12   1    46.6    57.6   1
  13  12   2   582.9    34.0   1
  13  12   3    82.2    31.7   1
  13  12   4  1038.9    55.0   1
  13  12   5   189.9    49.3   1
  13  12   7   619.1    66.3   1
  13  12   8  -120.1    73.0   1
  13  12   9   -50.4    89.2   1
  13  12  10  -155.9    85.4   1
  13  12  11   574.6   108.4   1
  13  12  12  2705.3   141.2   1
  13  13 -10  3244.2   147.3   1
  13  13  -9  1228.9    93.4   1
  13  13  -8  2666.1   175.6   1
  13  13  -6    78.3    34.1   1
  13  13  -5    16.0    25.9   1
  13  13  -4   102.0    32.0   1
  13  13  -2   927.7    29.8   1
  13  13  -1    52.2    25.5   1
  13  13   1   167.5    36.0   1
  13  13   2  1518.7    55.8   1
  13  14 -18  1286.0    99.1   1
  13  14 -17  2198.5   101.7   1
  13  14 -16   625.0    74.6   1
  13  14 -11  1423.7    51.8   1
  13  14 -10   154.9    35.8   1
  13  14  -9   253.4    35.6   1
  13  14  -8   609.5    38.6   1
  13  14  -7   268.5    28.2   1
  13  14  -6   154.4    27.9   1
  13  14  -5   320.3    27.6   1
  13  14  -4    87.0    27.9   1
  13  14  -3    16.2    27.4   1
  13  14  -2   364.3    27.7   1
  13  14  -1  3386.1    71.7   1
  13  14   2   716.1    38.2   1
  13  14   3   486.2    38.2   1
  13  14   4   -39.4    46.1   1
  13  14   5   195.1    52.2   1
  13  14   6   211.2    62.4   1
  13  14   7   -20.4    70.2   1
  13  14   8   -71.5    85.5   1
  13  14   9  1059.8    89.3   1
  13  14  10   797.5   103.6   1
  13  14  11   -65.9   106.9   1
  13  15 -18  5060.5   155.3   1
  13  15 -17  2002.6   103.6   1
  13  15 -16  -196.2    77.4   1
  13  15 -15   594.5    74.7   1
  13  15 -14  1303.0    85.4   1
  13  15 -12   -46.8    54.8   1
  13  15 -11   456.3    44.6   1
  13  15 -10   -59.2    38.7   1
  13  15  -9   -56.5    36.3   1
  13  15  -8   149.5    35.7   1
  13  15  -7   401.3    38.6   1
  13  15  -6    49.8    27.1   1
  13  15  -5   645.7    31.7   1
  13  15  -4    48.0    26.3   1
  13  15  -3    37.0    30.7   1
  13  15  -2    43.4    29.6   1
  13  15  -1   125.7    27.8   1
  13  15   1    30.4    32.8   1
  13  15   2   715.5    49.0   1
  13  15   3    54.8    46.1   1
  13  15   4   194.3    52.5   1
  13  15   5   -87.1    57.2   1
  13  15   6  2120.6    91.2   1
  13  15   7   462.5    79.2   1
  13  15   8    74.6    74.9   1
  13  15   9    49.5    89.7   1
  13  15  10   319.5   100.3   1
  13  16 -17   109.3    90.6   1
  13  16 -15  2406.8   101.7   1
  13  16 -14    10.2    70.9   1
  13  16 -12    81.0    58.5   1
  13  16 -11   416.4    44.4   1
  13  16 -10   156.9    40.3   1
  13  16  -9   -80.3    38.2   1
  13  16  -8    11.2    38.9   1
  13  16  -7   -73.8    38.0   1
  13  16  -6    72.2    28.9   1
  13  16  -5     3.4    30.8   1
  13  16  -4   376.6    39.9   1
  13  16  -3   249.6    41.5   1
  13  16  -2   350.6    43.9   1
  13  16  -1   -29.1    34.3   1
  13  16   1  3805.0    88.8   1
  13  16   2    16.8    38.3   1
  13  16   4    41.1    55.9   1
  13  16   7  2292.3    90.7   1
  13  16   8   144.5    82.4   1
  13  16   9  1111.3    97.7   1
  13  16  11  -270.2   178.6   1
  13  17 -16   887.6    93.2   1
  13  17 -14  2011.9    93.5   1
  13  17 -12   -61.2    64.5   1
  13  17 -11    -0.3    43.9   1
  13  17 -10  2143.0    69.3   1
  13  17  -8  5179.5   128.3   1
  13  17  -7   742.7    49.9   1
  13  17  -6  3650.3    69.3   1
  13  17  -5   394.7    47.7   1
  13  17  -4   149.8    61.1   1
  13  17  -3   285.1    63.6   1
  13  17  -2    44.2    54.8   1
  13  17  -1    74.2    57.3   1
  13  17   1   194.3    38.3   1
  13  17   2  1031.1    52.3   1
  13  17   3   180.3    55.6   1
  13  17   5   176.3    69.9   1
  13  17   6   -28.5    65.2   1
  13  17   7  2979.2   106.5   1
  13  17   8  1463.0    94.5   1
  13  17  10   691.5   116.4   1
  13  18 -17  -128.0   101.0   1
  13  18 -16  1067.2   104.1   1
  13  18 -15   160.8    86.5   1
  13  18 -12   279.6    73.1   1
  13  18 -11   345.4    52.3   1
  13  18 -10   101.7    46.9   1
  13  18  -9   826.0    54.9   1
  13  18  -8   241.2    48.1   1
  13  18  -7   -32.1    45.7   1
  13  18  -6   863.3    57.8   1
  13  18  -5  1433.6    84.4   1
  13  18  -4   489.3    76.4   1
  13  18  -1   887.8    80.3   1
  13  18   1   329.5    44.8   1
  13  18   2   317.5    46.5   1
  13  18   3    45.7    58.3   1
  13  18   6    29.0    69.8   1
  13  18   7   510.7    83.4   1
  13  19 -17   -42.2   109.2   1
  13  19 -15   327.3    99.0   1
  13  19 -11   577.9    80.8   1
  13  19 -10   256.1    54.6   1
  13  19  -9  1268.9    63.9   1
  13  19  -8   -30.1    50.6   1
  13  19  -6    60.3    53.6   1
  13  19  -4   102.4    82.5   1
  13  19  -1    87.6    76.7   1
  13  19   1   -40.8    61.6   1
  13  19   2   -26.2    63.3   1
  13  19   3    62.3    69.7   1
  13  19   4   551.4    64.7   1
  13  19   5   187.6    68.2   1
  13  19   6   362.9    78.0   1
  13  19   7  2763.5   114.7   1
  13  19   8   -57.1   100.1   1
  13  19   9  -208.2   117.5   1
  13  20 -10   157.1    56.8   1
  13  20  -9  1441.2    74.0   1
  13  20  -8   619.1    64.3   1
  13  20  -7   -59.9    59.4   1
  13  20  -4   419.9   100.1   1
  13  20  -1   406.4    96.7   1
  13  20   1    -4.0    74.3   1
  13  20   2   495.3    81.3   1
  13  20   3   802.3    70.8   1
  13  20   4  1134.0    78.1   1
  13  20   5  -135.1    74.8   1
  13  20   8   497.9   113.6   1
  13  20   9  -230.0   125.7   1
  13  21 -10    15.7    63.0   1
  13  21  -9  1124.2    73.7   1
  13  21  -8   200.6    67.6   1
  13  21   2   151.3    87.1   1
  13  21   3   866.6    77.9   1
  13  21   5   721.6    93.6   1
  13  21   6   -78.5    97.7   1
  13  22 -10   809.2    78.9   1
  13  22  -9    -7.9    71.2   1
  13  22   2   458.6   103.0   1
  13  22   4   144.2    90.2   1
  13  22   5   431.8    99.5   1
  13  22   6   -34.7   108.1   1
  13  22   7  -267.2   123.5   1
  13  23 -10   151.4    75.6   1
  13  23   4  2381.5   127.7   1
  13  23   5    93.8   113.2   1
  13  23   6   602.0   126.6   1
  13  23   7   302.6   134.8   1
  13  23   8   300.9   151.4   1
  13  24   5    -7.3   123.5   1
  13  24   6   334.8   137.1   1
  13  24   7   127.8   151.3   1
  13  25   5  -279.7   146.4   1
  13  25   6    43.5   158.4   1
  14   0 -19    37.6    48.6   1
  14   0 -17   -27.0    38.9   1
  14   0 -11   -10.6    26.9   1
  14   0  -9   -20.3    35.5   1
  14   0  -1    -2.6    42.4   1
  14   0   1   -30.0    47.6   1
  14   0   9    59.5    67.0   1
  14   1 -23   434.6    97.2   1
  14   1 -22  1669.6    99.0   1
  14   1 -21   568.3    75.3   1
  14   1 -20   419.9    63.4   1
  14   1 -19   527.5    43.9   1
  14   1 -18    -7.1    32.5   1
  14   1 -17     4.3    28.0   1
  14   1 -16   392.0    27.1   1
  14   1 -15  2365.3   124.7   1
  14   1 -13    45.7    25.2   1
  14   1 -12   336.6    18.5   1
  14   1 -11   286.7    18.2   1
  14   1 -10    80.0    17.6   1
  14   1  -9   276.7    19.9   1
  14   1  -8   -33.4    20.0   1
  14   1  -6    -8.4    21.2   1
  14   1  -5    71.3    20.5   1
  14   1  -4   956.6    30.2   1
  14   1  -3     7.6    25.5   1
  14   1  -2   465.4    30.1   1
  14   1   2   -62.3    28.7   1
  14   1   3   405.0    35.3   1
  14   1   4   -28.5    34.0   1
  14   1   5   176.9    38.2   1
  14   1   6   -13.7    50.5   1
  14   1   7   209.7    41.0   1
  14   1   8   428.9    43.5   1
  14   1   9    51.7    47.3   1
  14   1  10  1340.7    71.4   1
  14   1  11    -9.8    74.3   1
  14   1  12   -78.6   106.0   1
  14   1  13    62.4   185.6   1
  14   2 -21   111.5    72.5   1
  14   2 -19    67.7    44.2   1
  14   2 -17   733.6    33.9   1
  14   2 -15   218.9    35.7   1
  14   2 -13   922.0    25.9   1
  14   2 -11   285.1    18.3   1
  14   2  -9   502.5    19.7   1
  14   2  -5    26.1    21.9   1
  14   2  -3   647.1    29.4   1
  14   2  -1   132.3    31.8   1
  14   2   1    75.9    33.1   1
  14   2   3   -94.9    30.5   1
  14   2   5    -8.7    37.7   1
  14   2   7    -0.1    40.6   1
  14   2   9   264.8    63.1   1
  14   2  11   332.7    78.5   1
  14   2  13    97.4   135.9   1
  14   3 -22   -65.0    99.7   1
  14   3 -20   194.2    64.9   1
  14   3 -19   427.4    55.2   1
  14   3 -18  1031.2    57.0   1
  14   3 -17   -22.7    35.6   1
  14   3 -16   -26.2    25.7   1
  14   3 -15   554.0    30.6   1
  14   3 -13   570.7    22.5   1
  14   3 -12    28.4    17.6   1
  14   3 -11    12.8    17.8   1
  14   3 -10     6.6    17.5   1
  14   3  -9    76.1    17.8   1
  14   3  -8   -21.9    18.5   1
  14   3  -7    65.3    39.0   1
  14   3  -6     9.9    20.4   1
  14   3  -5  1771.4    33.3   1
  14   3  -4   -34.5    23.0   1
  14   3  -3    85.8    33.1   1
  14   3  -2   500.8    27.6   1
  14   3  -1   143.2    36.3   1
  14   3   1  1092.7    37.7   1
  14   3   2    -5.0    32.9   1
  14   3   4  1165.2    43.9   1
  14   3   5   704.8    46.0   1
  14   3   6   301.0    38.7   1
  14   3   7   258.5    43.2   1
  14   3   8   711.7    46.8   1
  14   3   9   557.6    56.6   1
  14   3  10  1025.2    68.8   1
  14   3  11   532.1    92.1   1
  14   3  12   -21.2    95.6   1
  14   3  13   -78.4   136.9   1
  14   4 -21   479.9    85.7   1
  14   4 -19   896.2    62.6   1
  14   4 -17  2715.2    64.4   1
  14   4 -15   -38.6    24.9   1
  14   4 -13    57.3    18.7   1
  14   4 -11   331.6    20.8   1
  14   4  -9    45.9    20.8   1
  14   4  -7   100.6    22.6   1
  14   4  -5   142.0    26.7   1
  14   4  -3   231.5    25.0   1
  14   4  -1   204.4    27.2   1
  14   4   1   -34.2    29.2   1
  14   4   3    61.2    30.6   1
  14   4   5   -50.8    33.7   1
  14   4   7  2140.5    69.0   1
  14   4   9    64.5    53.6   1
  14   4  11    -2.4    85.6   1
  14   4  13    85.6   119.9   1
  14   5 -20   -53.2    74.4   1
  14   5 -19   203.2    59.9   1
  14   5 -18  1143.2    61.1   1
  14   5 -17   -43.2    42.9   1
  14   5 -16   693.9    40.9   1
  14   5 -15   196.6    30.4   1
  14   5 -13   -61.0    21.4   1
  14   5 -12    93.0    19.1   1
  14   5 -11    10.0    19.2   1
  14   5 -10   -37.1    17.7   1
  14   5  -9    25.4    20.6   1
  14   5  -8     3.3    20.1   1
  14   5  -7   218.9    20.7   1
  14   5  -6   -45.7    20.7   1
  14   5  -5    46.6    22.7   1
  14   5  -4   186.7    24.5   1
  14   5  -3   -12.5    25.8   1
  14   5  -2   702.2    29.4   1
  14   5  -1   710.3    30.5   1
  14   5   1    55.7    31.5   1
  14   5   2   398.7    36.4   1
  14   5   3    72.9    30.6   1
  14   5   4    52.6    40.6   1
  14   5   6   518.7    38.9   1
  14   5   7   136.4    47.4   1
  14   5   8   205.7    57.1   1
  14   5  10   -48.8    66.8   1
  14   5  11   250.5    86.4   1
  14   5  12   509.4   107.1   1
  14   5  13   632.6   128.3   1
  14   6 -21   474.8    93.1   1
  14   6 -19    14.0    60.7   1
  14   6 -17  1126.5    70.2   1
  14   6 -15    45.0    42.0   1
  14   6 -13    47.3    26.2   1
  14   6 -11   550.4    24.6   1
  14   6  -9    38.2    19.1   1
  14   6  -5   512.9    23.9   1
  14   6  -3   -27.8    24.5   1
  14   6  -1   225.1    26.0   1
  14   6   1    68.0    32.0   1
  14   6   3   273.3    45.9   1
  14   6   5   337.9    35.0   1
  14   6   7   118.6    50.9   1
  14   6   9   165.4    58.7   1
  14   6  11  1281.5   134.7   1
  14   6  13  -164.0   132.8   1
  14   7 -20  1000.4    92.9   1
  14   7 -18   505.2    65.2   1
  14   7 -17   402.5    59.8   1
  14   7 -16   286.9    51.0   1
  14   7 -15  1160.7    61.6   1
  14   7 -13   -17.7    27.6   1
  14   7 -12  2456.0    51.4   1
  14   7 -11   108.5    22.0   1
  14   7 -10   -39.2    20.3   1
  14   7  -9   146.3    19.2   1
  14   7  -8   222.5    21.8   1
  14   7  -6    79.1    21.0   1
  14   7  -5   821.5    25.2   1
  14   7  -4   -68.7    21.9   1
  14   7  -3     6.7    25.1   1
  14   7  -2    29.7    23.7   1
  14   7  -1   134.8    25.8   1
  14   7   1   -21.2    30.7   1
  14   7   2   -16.1    34.0   1
  14   7   3    55.9    36.4   1
  14   7   4  1215.8    48.9   1
  14   7   5   112.0    34.9   1
  14   7   6   967.3    45.8   1
  14   7   8   508.0    84.5   1
  14   7   9  -114.2    60.4   1
  14   7  10   368.5    76.4   1
  14   7  11   863.8    97.4   1
  14   7  12  -553.0   153.4   1
  14   7  13  -281.9   135.4   1
  14   8 -21    65.3    94.2   1
  14   8 -19  2124.8    99.6   1
  14   8 -17   138.2    61.9   1
  14   8 -15   465.4    50.1   1
  14   8 -13   -54.2    44.5   1
  14   8 -11  4392.5    73.6   1
  14   8  -9   -43.5    21.3   1
  14   8  -7    21.7    47.5   1
  14   8  -5   -86.7    23.8   1
  14   8  -3   -31.1    26.1   1
  14   8  -1   941.2    32.7   1
  14   8   1    65.6    28.8   1
  14   8   3    31.2    43.7   1
  14   8   5  1062.3    44.6   1
  14   8   7   242.2    51.0   1
  14   8   9   100.2    78.1   1
  14   8  11   404.9   115.9   1
  14   8  13   381.9   159.8   1
  14   9 -20   107.6    92.0   1
  14   9 -18   518.5    73.3   1
  14   9 -17   -75.4    65.8   1
  14   9 -16  2250.7    82.7   1
  14   9 -15   474.7    58.9   1
  14   9 -13    68.1    36.2   1
  14   9 -12   617.9    37.9   1
  14   9 -11   -33.7    27.9   1
  14   9 -10    66.9    26.2   1
  14   9  -8  1124.4    30.3   1
  14   9  -7   102.3    27.8   1
  14   9  -6   418.3    24.2   1
  14   9  -5    97.9    55.5   1
  14   9  -4    57.5    23.6   1
  14   9  -3    11.0    21.8   1
  14   9  -2  1014.5    32.0   1
  14   9  -1  1321.2    35.0   1
  14   9   1   368.9    31.9   1
  14   9   2    40.9    31.6   1
  14   9   3   744.7    45.9   1
  14   9   4   206.2    34.8   1
  14   9   5   430.8    62.2   1
  14   9   6   577.6    52.1   1
  14   9   7    80.6    62.6   1
  14   9   8   194.2    70.7   1
  14   9   9    95.6   103.2   1
  14   9  10    14.1    99.6   1
  14   9  11  -117.5   137.7   1
  14   9  12   252.4   134.5   1
  14   9  13  3302.9   194.5   1
  14  10 -17   109.1    70.6   1
  14  10 -15   -58.6    57.3   1
  14  10 -13   -42.4    38.5   1
  14  10 -11    71.0    37.5   1
  14  10  -9  1377.8    70.2   1
  14  10  -5    54.6    47.2   1
  14  10  -3   605.7    26.4   1
  14  10  -1   -46.5    25.5   1
  14  10   1   935.7    39.8   1
  14  10   3   246.4    33.8   1
  14  10   5  1069.5    59.0   1
  14  10   7   -84.2    71.5   1
  14  10   9   171.2    97.0   1
  14  10  11  -196.2   146.0   1
  14  11 -21   -33.6   112.7   1
  14  11 -19   141.3    89.1   1
  14  11 -18  3239.8   116.5   1
  14  11 -16   323.1    71.0   1
  14  11 -13   306.0    42.5   1
  14  11 -12   397.4    41.6   1
  14  11 -10     4.1    32.8   1
  14  11  -9   398.6    33.9   1
  14  11  -8   -44.6    26.1   1
  14  11  -7     4.0    34.7   1
  14  11  -6   868.5    31.9   1
  14  11  -5   447.8    27.7   1
  14  11  -4   344.8    24.5   1
  14  11  -2  1724.6    36.4   1
  14  11  -1   153.0    32.4   1
  14  11   1    45.4    31.8   1
  14  11   2   313.5    37.2   1
  14  11   3  1151.8    75.1   1
  14  11   4   -31.5    41.4   1
  14  11   5   -89.9    54.2   1
  14  11   6   973.4    74.4   1
  14  11   7    46.1    78.4   1
  14  11   8  -265.3    90.8   1
  14  11   9   247.8   107.6   1
  14  11  10   -62.7   129.2   1
  14  11  12  -239.6   153.2   1
  14  12 -19   470.6    96.1   1
  14  12 -17   537.4    82.1   1
  14  12 -15  1408.8    83.7   1
  14  12 -13   383.6    57.8   1
  14  12 -11    -3.3    36.7   1
  14  12  -9   271.8    34.5   1
  14  12  -5   524.4    29.5   1
  14  12  -3   -28.3    23.0   1
  14  12  -1  2624.2    69.4   1
  14  12   1    60.2    34.6   1
  14  12   3    -6.9    39.8   1
  14  12   5   -52.5    62.4   1
  14  12   9   819.5   115.8   1
  14  12  11  -355.2   132.0   1
  14  13 -20   144.4   112.7   1
  14  13 -19    -9.4   104.9   1
  14  13 -18   200.0    88.3   1
  14  13 -17  2107.0   104.6   1
  14  13 -12   361.4    45.8   1
  14  13 -11   141.9    40.3   1
  14  13 -10   127.1    38.3   1
  14  13  -9  6637.9   133.6   1
  14  13  -8     4.1    36.4   1
  14  13  -6   506.6    35.9   1
  14  13  -5    -3.1    32.6   1
  14  13  -4    60.2    27.4   1
  14  13  -3   -44.6    24.5   1
  14  13  -2    43.3    25.1   1
  14  13   1  2024.1    65.2   1
  14  13   2   141.8    38.4   1
  14  13   3  1228.6    56.0   1
  14  13   4   912.9    64.8   1
  14  13   5    45.9    63.7   1
  14  13   6   130.8    75.5   1
  14  13   7  3275.2   126.0   1
  14  13   9     0.5   118.6   1
  14  13  10   107.7   115.4   1
  14  13  11   317.3   144.2   1
  14  13  12   391.0   176.2   1
  14  14 -11   191.9    45.8   1
  14  14  -3  1599.8    46.1   1
  14  14  -1    32.9    39.5   1
  14  14   1    33.6    48.6   1
  14  15 -19  -206.6   116.2   1
  14  15 -18   -37.0   110.5   1
  14  15 -12    21.6    57.3   1
  14  15 -11   694.8    54.2   1
  14  15 -10   -41.4    45.4   1
  14  15  -9   -22.4    43.1   1
  14  15  -8   249.1    45.4   1
  14  15  -6   229.8    34.6   1
  14  15  -5  1234.2    42.7   1
  14  15  -4   148.5    37.8   1
  14  15  -3  1860.3    48.3   1
  14  15  -2    81.8    33.4   1
  14  15   1   708.4    59.5   1
  14  15   2     8.0    44.5   1
  14  15   3   245.5    47.6   1
  14  15   4   236.8    66.2   1
  14  15   5  1562.6    89.0   1
  14  15   6   -14.8    81.6   1
  14  15   7   258.8    99.1   1
  14  15   8  1316.7   126.3   1
  14  15   9   843.0   112.5   1
  14  15  10   -72.0   134.5   1
  14  15  11   264.3   165.3   1
  14  16 -19  -224.1   132.0   1
  14  16 -11   489.5    52.6   1
  14  16  -9   491.9    52.4   1
  14  16  -7   -80.5    35.3   1
  14  16  -5   477.1    40.6   1
  14  16  -3   114.4    42.5   1
  14  16  -1   -75.7    37.2   1
  14  16   1   490.7    47.0   1
  14  16   3   539.6    54.4   1
  14  16   5  -107.9    79.8   1
  14  16   9    24.0   118.5   1
  14  17 -19   572.2   136.8   1
  14  17 -18   766.8   134.2   1
  14  17 -13   -44.0    88.1   1
  14  17 -12  1227.4    68.5   1
  14  17 -11   -63.1    54.2   1
  14  17 -10  1097.8    64.0   1
  14  17  -9   838.1    60.8   1
  14  17  -8   -45.6    49.8   1
  14  17  -6   391.2    42.4   1
  14  17  -5    23.6    40.8   1
  14  17  -4    80.9    53.9   1
  14  17  -2   257.0    48.0   1
  14  17  -1    38.5    48.4   1
  14  17   1   -45.9    58.2   1
  14  17   2    -2.3    51.8   1
  14  17   4    79.0    79.0   1
  14  17   7    43.9   116.0   1
  14  17   8   -41.3   108.9   1
  14  17   9   264.3   132.2   1
  14  17  10   101.4   161.5   1
  14  18 -11   124.6    60.5   1
  14  18  -9   348.9    59.5   1
  14  18  -5   264.3    61.9   1
  14  18  -3   772.5   104.1   1
  14  18  -1  -113.2    83.4   1
  14  18   1  3214.8    86.5   1
  14  18   3  1310.6    96.5   1
  14  18   5   303.0   101.3   1
  14  18   7   -63.2   103.6   1
  14  19 -12  2123.7    87.4   1
  14  19 -11    58.9    63.9   1
  14  19 -10   142.7    64.5   1
  14  19  -8   187.2    62.9   1
  14  19  -6   582.0    75.7   1
  14  19  -5  1085.5   110.6   1
  14  19  -4   -70.1   105.5   1
  14  19  -2    -4.3   104.2   1
  14  19  -1  1256.9   124.8   1
  14  19   1   134.0    60.7   1
  14  19   2   137.3    66.3   1
  14  19   3   748.3    95.5   1
  14  19   4   742.2   104.1   1
  14  19   6   -22.4    98.5   1
  14  19   7     1.4   115.9   1
  14  19   8    -8.6   133.7   1
  14  20 -11   497.0    75.3   1
  14  20  -9   186.0    72.0   1
  14  20   1   710.6    96.9   1
  14  20   3  -118.5   100.6   1
  14  20   5  -123.1    93.3   1
  14  21 -11  -160.3    76.4   1
  14  21 -10  -121.9    75.1   1
  14  21  -9   854.5    84.5   1
  14  21  -8   -81.8    81.8   1
  14  21   1   -74.2   103.1   1
  14  21   2   638.4   115.7   1
  14  21   3    72.0   108.8   1
  14  21   4  1184.2   105.4   1
  14  21   5     8.9   109.5   1
  14  21   6   351.1   124.8   1
  14  22 -11  -142.1    81.8   1
  14  22  -7   168.1   100.4   1
  14  22   5  -198.5   120.2   1
  14  23   4  1301.2   134.8   1
  14  23   6  -183.6   152.7   1
  14  24 -11   -20.6   112.9   1
  14  24   5    18.5   159.4   1
  15   0 -19   -17.2    60.8   1
  15   0 -13    11.7    35.2   1
  15   0  -4    78.2    38.1   1
  15   0  -2   599.1    51.8   1
  15   0  -1    65.7    51.9   1
  15   0   1    13.3    53.5   1
  15   0   2  2126.2    76.1   1
  15   1 -24  1154.3   143.9   1
  15   1 -23   160.3   117.1   1
  15   1 -22  4685.4   158.0   1
  15   1 -21   -18.8    66.6   1
  15   1 -20  1092.7    66.1   1
  15   1 -19    38.0    42.4   1
  15   1 -18    -6.9    38.3   1
  15   1 -17   741.4    38.8   1
  15   1 -14   497.5    34.0   1
  15   1 -13   135.3    20.0   1
  15   1 -12    11.8    20.3   1
  15   1 -11   -36.9    20.7   1
  15   1 -10   499.3    23.2   1
  15   1  -9   200.1    21.0   1
  15   1  -7   242.7    24.5   1
  15   1  -6   -47.6    24.6   1
  15   1  -5   318.0    26.7   1
  15   1  -4   894.8    31.6   1
  15   1  -3   226.4    27.8   1
  15   1  -2   139.3    49.6   1
  15   1  -1     1.8    52.7   1
  15   1   1   207.2    46.3   1
  15   1   2    10.0    32.0   1
  15   1   3   -92.6    36.1   1
  15   1   4   553.1    50.1   1
  15   1   5   293.7    56.2   1
  15   1   6   -50.7    52.3   1
  15   1   7    91.1    58.4   1
  15   1   8   550.4    56.6   1
  15   1   9  -130.7    60.7   1
  15   1  10  -217.3    71.2   1
  15   1  11  -160.7    99.0   1
  15   1  12  -377.4   140.5   1
  15   2 -24   349.5   139.9   1
  15   2 -23   242.9   122.8   1
  15   2 -22    58.0   101.7   1
  15   2 -21     3.4    90.7   1
  15   2 -20   -20.7    59.9   1
  15   2 -19  3742.1    73.1   1
  15   2 -18   150.3    39.7   1
  15   2 -17   347.4    38.5   1
  15   2 -16  1592.3    54.8   1
  15   2 -14   -15.9    25.5   1
  15   2 -13   -15.0    27.0   1
  15   2 -12   146.0    20.9   1
  15   2 -11   441.9    22.9   1
  15   2 -10    42.8    20.7   1
  15   2  -9   237.4    21.5   1
  15   2  -8   -26.6    21.0   1
  15   2  -7   137.0    23.3   1
  15   2  -6   -59.9    24.8   1
  15   2  -5    93.0    26.1   1
  15   2  -4    50.8    26.2   1
  15   2  -3   -97.7    29.7   1
  15   2  -2   527.8    44.3   1
  15   2  -1    21.2    36.6   1
  15   2   1   -82.0    44.2   1
  15   2   2     1.7    43.7   1
  15   2   3   -88.3    36.3   1
  15   2   4  -156.6    39.2   1
  15   2   5    12.8    48.1   1
  15   2   6   119.2    53.2   1
  15   2   7   525.1    55.2   1
  15   2   8   536.0    62.5   1
  15   2   9    22.2    60.4   1
  15   2  10   251.7    83.0   1
  15   2  11   311.4   114.1   1
  15   2  12  -156.5   121.8   1
  15   3 -22    92.0   108.8   1
  15   3 -19   252.1    54.6   1
  15   3 -17   274.3    36.1   1
  15   3 -16  1770.2    46.9   1
  15   3 -14   565.9    28.8   1
  15   3 -13    39.3    21.4   1
  15   3 -11   386.8    23.2   1
  15   3 -10   418.8    22.7   1
  15   3  -8    29.1    23.3   1
  15   3  -7   372.8    24.7   1
  15   3  -5    51.8    26.5   1
  15   3  -4    70.9    26.9   1
  15   3  -2   -17.3    41.4   1
  15   3  -1   386.2    45.2   1
  15   3   1   113.3    38.7   1
  15   3   2   333.4    41.7   1
  15   3   4   237.6    47.9   1
  15   3   5  -107.9    48.3   1
  15   3   7   539.1    56.7   1
  15   3   8    58.2    61.2   1
  15   3  10   -66.9    84.7   1
  15   3  11   314.3   102.5   1
  15   4 -21   183.6    98.6   1
  15   4 -20   402.3    80.7   1
  15   4 -18    78.8    41.2   1
  15   4 -17  1509.1    48.0   1
  15   4 -16   -90.4    32.0   1
  15   4 -14   741.6    29.1   1
  15   4 -13  2122.1    39.2   1
  15   4 -12   779.2    29.6   1
  15   4 -10   766.6    25.8   1
  15   4  -9   424.9    23.4   1
  15   4  -8    64.5    23.8   1
  15   4  -7    96.7    23.5   1
  15   4  -6   413.4    25.3   1
  15   4  -5    54.8    32.3   1
  15   4  -3  1073.5    36.8   1
  15   4  -2   564.3    33.7   1
  15   4  -1   -93.8    32.1   1
  15   4   1   689.4    40.2   1
  15   4   2   257.6    45.0   1
  15   4   3   267.6    39.5   1
  15   4   4   685.1    70.8   1
  15   4   5   107.7    44.2   1
  15   4   6  1015.2    68.2   1
  15   4   7   120.1    92.3   1
  15   4   8   439.3    64.7   1
  15   4   9   -15.1    69.7   1
  15   4  10  -103.8    85.7   1
  15   4  12   442.8   129.9   1
  15   5 -22   677.1   134.9   1
  15   5 -21  1270.7   113.3   1
  15   5 -19   161.9    69.8   1
  15   5 -18  1855.9    81.2   1
  15   5 -17    45.3    38.7   1
  15   5 -16  1855.2    52.3   1
  15   5 -14  1525.5    35.8   1
  15   5 -13   214.7    24.5   1
  15   5 -12    23.8    24.4   1
  15   5 -11   386.6    23.8   1
  15   5  -9   -25.2    21.9   1
  15   5  -8   -15.5    23.8   1
  15   5  -7    15.2    24.3   1
  15   5  -6    25.0    23.9   1
  15   5  -4   632.0    32.6   1
  15   5  -3  1215.6    37.7   1
  15   5  -2   157.3    31.8   1
  15   5  -1   268.9    34.5   1
  15   5   1   584.5    46.2   1
  15   5   2   -76.0    41.4   1
  15   5   3     9.6    37.5   1
  15   5   4    32.8    41.1   1
  15   5   6  -115.0    43.6   1
  15   5   7   -34.2    56.1   1
  15   5   8  -172.6    75.1   1
  15   5   9  -225.4    70.1   1
  15   5  11   153.4   106.8   1
  15   5  12   -77.6   132.9   1
  15   6 -20   913.0    94.3   1
  15   6 -19   385.7    85.2   1
  15   6 -17   426.3    52.3   1
  15   6 -16   183.2    41.4   1
  15   6 -14   975.2    41.4   1
  15   6 -13  1711.1    39.4   1
  15   6 -11  1497.1    34.7   1
  15   6 -10    48.4    24.8   1
  15   6  -8    17.3    26.9   1
  15   6  -7     2.9    24.1   1
  15   6  -5   286.2    25.8   1
  15   6  -4    89.4    29.8   1
  15   6  -2   -59.4    30.5   1
  15   6  -1   -25.5    29.7   1
  15   6   2   485.2    48.3   1
  15   6   4   537.4    47.0   1
  15   6   5  -137.1    44.6   1
  15   6   7    58.5    51.4   1
  15   6   8   566.7   114.5   1
  15   6  10  -181.3    93.6   1
  15   6  11   508.1   118.3   1
  15   7 -20   -82.6    94.8   1
  15   7 -19  -103.8    89.0   1
  15   7 -18   184.5    80.1   1
  15   7 -17   -24.5    68.0   1
  15   7 -16    74.3    43.4   1
  15   7 -14    71.5    35.3   1
  15   7 -13   -57.7    28.7   1
  15   7 -12  2282.9    46.4   1
  15   7 -11   159.4    29.0   1
  15   7 -10     2.1    22.5   1
  15   7  -9   -62.6    22.6   1
  15   7  -8    -4.2    49.7   1
  15   7  -7    30.1    29.1   1
  15   7  -6   634.0    27.7   1
  15   7  -5   -20.5    25.0   1
  15   7  -4   147.7    42.6   1
  15   7  -3   161.5    30.6   1
  15   7  -2   -71.0    30.4   1
  15   7  -1    49.0    30.1   1
  15   7   1   220.3    47.3   1
  15   7   2   624.2    50.0   1
  15   7   3   -62.4    46.0   1
  15   7   4    62.3    48.1   1
  15   7   5   581.0    47.7   1
  15   7   6  1730.2    63.8   1
  15   7   9   -27.3    94.6   1
  15   7  10  1638.2   113.0   1
  15   7  11  1040.5   128.9   1
  15   7  12  -540.3   149.0   1
  15   8 -20   165.1   100.9   1
  15   8 -19  3682.2   143.3   1
  15   8 -18   -93.8    80.7   1
  15   8 -17   738.0    79.0   1
  15   8 -16   130.7    48.8   1
  15   8 -14   106.6    42.6   1
  15   8 -13    69.2    39.5   1
  15   8 -12   143.4    32.9   1
  15   8 -11    23.7    48.9   1
  15   8 -10   115.6    27.3   1
  15   8  -9    87.3    27.8   1
  15   8  -6  1696.8    36.8   1
  15   8  -5   -35.8    28.4   1
  15   8  -4   983.4    37.3   1
  15   8  -3    86.2    31.2   1
  15   8  -2   747.7    33.6   1
  15   8  -1   658.6    42.2   1
  15   8   1    59.1    36.3   1
  15   8   2   322.1    46.5   1
  15   8   3   488.0    50.9   1
  15   8   4   -47.0    43.1   1
  15   8   5   791.6    51.7   1
  15   8   6   994.9    57.9   1
  15   8   7  1079.6   108.6   1
  15   8   9   892.6   109.4   1
  15   8  10   896.1   135.3   1
  15   8  11   350.8   157.6   1
  15   9 -17  1495.3    91.9   1
  15   9 -16  3651.1   131.7   1
  15   9 -14     3.3    44.6   1
  15   9 -13  1229.1    53.4   1
  15   9 -11  2215.4    51.7   1
  15   9 -10   862.9    38.8   1
  15   9  -8   538.5    30.1   1
  15   9  -7  1459.7    53.6   1
  15   9  -5    51.6    37.5   1
  15   9  -4   696.6    32.8   1
  15   9  -2   708.4    34.2   1
  15   9  -1   211.1    31.7   1
  15   9   1    11.9    38.0   1
  15   9   2    26.5    40.3   1
  15   9   4   440.9    44.7   1
  15   9   5  4024.0    92.6   1
  15   9   7  -154.4    68.4   1
  15   9   8   238.1    92.6   1
  15   9  10   569.3   185.5   1
  15   9  11    -4.7   170.6   1
  15  10 -18   847.4    98.5   1
  15  10 -17  1054.6    94.9   1
  15  10 -16   474.3    79.6   1
  15  10 -14  1619.7    61.6   1
  15  10 -13   947.2    53.9   1
  15  10 -12   -12.3    37.1   1
  15  10 -11   888.3    42.0   1
  15  10  -9     5.1    28.0   1
  15  10  -8   -47.3    28.9   1
  15  10  -7  1093.3    35.5   1
  15  10  -6   400.9    28.1   1
  15  10  -4   330.6    31.4   1
  15  10  -3   191.1    27.4   1
  15  10  -2   397.7    33.7   1
  15  10  -1   -96.7    31.3   1
  15  10   1   -43.2    40.4   1
  15  10   2  4893.2    83.4   1
  15  10   3  -134.4    53.5   1
  15  10   4   -54.4    50.2   1
  15  10   6   790.1    70.1   1
  15  10   7   391.9    86.4   1
  15  10   8   327.8   100.7   1
  15  10   9  -367.0   120.8   1
  15  10  11  -360.8   190.8   1
  15  11 -16    59.2    81.9   1
  15  11 -14   541.9    54.8   1
  15  11 -13   -95.8    47.9   1
  15  11 -12   172.7    47.2   1
  15  11 -11  1118.4    66.1   1
  15  11 -10   320.9    42.1   1
  15  11  -9   936.4    38.8   1
  15  11  -8    93.1    39.9   1
  15  11  -7   554.2    36.7   1
  15  11  -6    41.1    27.3   1
  15  11  -5   117.2    32.1   1
  15  11  -3   795.1    33.6   1
  15  11  -2   -37.6    31.5   1
  15  11  -1   -68.2    36.6   1
  15  11   1   750.3    49.0   1
  15  11   2   317.5    59.1   1
  15  11   3  1052.8    53.1   1
  15  11   4   795.2    60.9   1
  15  11   5  1938.6    78.1   1
  15  11   6   550.7    92.2   1
  15  11   7  -118.2   100.8   1
  15  11   8   -35.1   123.3   1
  15  11   9  -308.2   143.8   1
  15  11  10  -357.6   178.7   1
  15  12 -16   934.2    97.4   1
  15  12 -14   223.2    56.7   1
  15  12 -13   117.8    51.6   1
  15  12 -11   222.6    54.5   1
  15  12 -10    53.8    43.9   1
  15  12  -8   643.2    36.9   1
  15  12  -7   326.3    36.5   1
  15  12  -5    10.7    29.0   1
  15  12  -4   420.3    32.0   1
  15  12  -2   118.0    29.9   1
  15  12  -1   -10.5    39.8   1
  15  12   1   -11.0    44.2   1
  15  12   2    39.5    49.1   1
  15  12   4   -10.1    55.9   1
  15  12   5    31.5    74.6   1
  15  12   7   194.2   108.7   1
  15  12   8    32.7   132.4   1
  15  13 -13   -30.1    56.5   1
  15  13 -12   -20.9    51.8   1
  15  13 -11    76.6    50.1   1
  15  13 -10   166.5    48.9   1
  15  13  -9   -43.3    43.7   1
  15  13  -8   122.3    34.0   1
  15  13  -7   683.6    41.4   1
  15  13  -6   618.0    39.9   1
  15  13  -5   204.7    38.0   1
  15  13  -4   276.4    32.6   1
  15  13  -3    83.5    31.3   1
  15  13  -2   142.6    34.4   1
  15  13   1   -64.1    45.9   1
  15  13   2    48.3    54.1   1
  15  13   3   138.1    53.8   1
  15  13   4   318.7    59.6   1
  15  13   5   120.9    84.3   1
  15  13   6   -66.5    97.0   1
  15  13   7   -10.1   116.9   1
  15  13   8   -74.2   140.0   1
  15  13   9  -224.4   164.0   1
  15  13  10  -111.6   193.2   1
  15  14 -12    -3.1    53.3   1
  15  14 -11   371.8    55.6   1
  15  14 -10    -1.0    50.9   1
  15  14  -9  1135.5    56.7   1
  15  14  -8   261.3    41.1   1
  15  14  -7   493.7    49.9   1
  15  14  -6   321.6    46.5   1
  15  14  -5   216.7    44.2   1
  15  14  -4    68.0    32.8   1
  15  14  -3   839.8    39.3   1
  15  14  -2   499.5    37.7   1
  15  14   1   781.3   106.3   1
  15  14   2   123.0    52.3   1
  15  14   3   -16.4    56.5   1
  15  14   4     8.5    60.7   1
  15  14   5   231.3    93.9   1
  15  14   6   -81.9   106.6   1
  15  14   7  2283.9   151.4   1
  15  14   8  1604.9   159.9   1
  15  14   9  -287.8   174.6   1
  15  15 -13   212.2    63.9   1
  15  15 -11   127.6    58.9   1
  15  15  -7   113.4    40.9   1
  15  15  -4   490.1    51.5   1
  15  15  -2   169.2    48.2   1
  15  15  -1    31.1    61.5   1
  15  15   1    41.8    66.0   1
  15  16 -13   100.6    68.4   1
  15  16 -12   487.4    67.9   1
  15  16 -10   608.2    63.9   1
  15  16  -9   191.7    58.8   1
  15  16  -8   394.0    46.6   1
  15  16  -7   387.9    46.9   1
  15  16  -6   -45.8    43.0   1
  15  16  -5   854.8    58.7   1
  15  16  -4    59.8    51.6   1
  15  16  -3    12.1    47.1   1
  15  16  -2     3.8    47.8   1
  15  16  -1  1104.2    85.3   1
  15  16   2   247.2    59.9   1
  15  16   3    16.5    64.8   1
  15  16   4    93.1    91.5   1
  15  16   5  -169.5   109.1   1
  15  16   6  -156.4   125.5   1
  15  16   7   -37.5   143.4   1
  15  16   8  -173.5   163.1   1
  15  17 -13  1287.3    81.7   1
  15  17 -12   213.5    69.5   1
  15  17 -11   173.0    65.9   1
  15  17 -10   955.3    76.3   1
  15  17  -9   334.3    65.9   1
  15  17  -8   381.9    65.1   1
  15  17  -7   -28.4    46.2   1
  15  17  -6   336.3    50.2   1
  15  17  -5  2013.2    74.0   1
  15  17  -4   493.8    61.7   1
  15  17  -3   106.7    53.4   1
  15  17  -1   427.7    55.3   1
  15  17   1    99.3    60.2   1
  15  17   3  -128.4    70.1   1
  15  17   4   902.2   111.6   1
  15  17   5  -180.6   118.4   1
  15  17   6   513.0   140.7   1
  15  18 -13   -50.5    78.0   1
  15  18 -11   239.6    74.0   1
  15  18  -8   903.6    82.1   1
  15  18  -7    65.4    52.4   1
  15  18  -5  1147.9    67.7   1
  15  18  -4   341.3    80.2   1
  15  18  -2   412.9    72.8   1
  15  18  -1   -63.9    72.5   1
  15  18   1   -44.1    65.0   1
  15  18   2  1374.6    86.1   1
  15  18   4  -195.4   113.4   1
  15  19 -13  1082.5    93.2   1
  15  19 -12   -19.4    81.3   1
  15  19 -10   396.4    80.9   1
  15  19  -9  -113.7    78.6   1
  15  19  -8   -16.1    77.4   1
  15  19  -7   -87.9    56.3   1
  15  19  -6   756.0    68.5   1
  15  19  -5     2.7    77.4   1
  15  19  -2   328.9   141.0   1
  15  19  -1    74.4    90.0   1
  15  19   1    92.2    77.9   1
  15  19   2   186.2    81.4   1
  15  19   3   482.5   118.1   1
  15  19   4   281.9   126.5   1
  15  19   5  -134.3   141.2   1
  15  19   6  -278.9   163.4   1
  15  20 -12   127.7    91.1   1
  15  20 -11   -66.2    84.0   1
  15  20  -9   486.6    94.7   1
  15  20  -8     1.6    90.4   1
  15  20  -7   176.6    65.9   1
  15  20  -6  -105.4    92.3   1
  15  20  -2   -17.1   170.0   1
  15  20   1   435.0    90.4   1
  15  20   2   225.5    92.4   1
  15  20   3  -173.6   128.0   1
  15  20   4   915.8   148.2   1
  15  21 -10    70.1    99.4   1
  15  21  -8   -84.0   100.9   1
  15  21  -7    77.9   107.3   1
  15  21   1   -32.1   101.0   1
  15  21   2   405.7   107.3   1
  15  21   4   453.0   160.1   1
  15  22  -9   222.0   114.8   1
  15  22  -7  -121.0   120.1   1
  15  22   2    67.2   118.7   1
  16   0 -21   -33.1    92.1   1
  16   0 -13    17.1    35.1   1
  16   0 -11     9.2    42.5   1
  16   0  -1    11.2    64.1   1
  16   0  11  -170.4   162.6   1
  16   1 -23   321.1   158.2   1
  16   1 -22   -57.8    96.9   1
  16   1 -21   378.6    69.0   1
  16   1 -20  1593.6    70.6   1
  16   1 -19   966.2    58.4   1
  16   1 -18   256.7    47.3   1
  16   1 -15   193.1    44.7   1
  16   1 -14    47.7    24.6   1
  16   1 -13  1054.2    30.3   1
  16   1 -12  1090.1    33.5   1
  16   1 -11    30.6    26.2   1
  16   1 -10    48.2    25.7   1
  16   1  -9   -16.7    24.5   1
  16   1  -7   567.8    32.1   1
  16   1  -6   -35.7    30.3   1
  16   1  -5    53.3    31.2   1
  16   1  -4   -27.9    33.1   1
  16   1  -3    52.8    39.1   1
  16   1  -2  2107.1    82.6   1
  16   1   3   600.0    51.2   1
  16   1   4   -43.2    54.3   1
  16   1   5   -98.1    61.8   1
  16   1   6    46.9    67.3   1
  16   1   7     4.0    78.8   1
  16   1   8   508.7    79.5   1
  16   1   9   -32.6    79.6   1
  16   1  10    60.9   101.1   1
  16   1  11   602.6   118.5   1
  16   2 -21   -99.4    87.0   1
  16   2 -19  1555.5    65.9   1
  16   2 -15   121.0    76.0   1
  16   2 -13  1333.8    34.0   1
  16   2 -11    17.2    25.4   1
  16   2  -9   477.2    27.0   1
  16   2  -7   603.9    33.1   1
  16   2  -5   -38.2    31.7   1
  16   2  -3   -99.5    38.4   1
  16   2  -1    21.2    46.6   1
  16   2   1  1262.7    69.9   1
  16   2   3   834.4    72.0   1
  16   2   5  1737.6    80.8   1
  16   2   7   139.8    94.7   1
  16   2   9   315.7    79.9   1
  16   2  11  -128.1   135.6   1
  16   3 -23  -177.2   158.4   1
  16   3 -21   -11.5   121.8   1
  16   3 -20   -83.3    76.7   1
  16   3 -18    15.6    48.0   1
  16   3 -17    21.2    48.0   1
  16   3 -15   442.6    34.8   1
  16   3 -14   138.6    28.8   1
  16   3 -13   267.2    26.9   1
  16   3 -12   190.6    26.0   1
  16   3 -11   388.8    27.6   1
  16   3 -10    33.2    24.7   1
  16   3  -9   534.3    27.4   1
  16   3  -8   830.7    53.8   1
  16   3  -7  1097.6    35.2   1
  16   3  -6   -48.2    33.0   1
  16   3  -5   269.3    32.6   1
  16   3  -4    -9.3    32.8   1
  16   3  -2  1135.7    45.2   1
  16   3  -1   406.8    58.2   1
  16   3   1     9.6    43.4   1
  16   3   4   716.7    58.0   1
  16   3   5   806.8    60.7   1
  16   3   6   166.2    69.7   1
  16   3   7   356.7    72.0   1
  16   3   8   220.7    80.0   1
  16   3   9   311.2    81.8   1
  16   3  10  -219.7   110.5   1
  16   3  11   408.2   136.9   1
  16   4 -23  2080.3   182.6   1
  16   4 -21  1391.1   134.1   1
  16   4 -19   390.3    59.1   1
  16   4 -17   -55.5    37.9   1
  16   4 -15   -59.7    31.1   1
  16   4 -13   890.1    36.9   1
  16   4 -11   582.8    29.1   1
  16   4  -9   861.7    30.9   1
  16   4  -7    20.6    29.2   1
  16   4  -5    99.4    31.6   1
  16   4  -3   159.3    38.2   1
  16   4  -1    -0.4    38.7   1
  16   4   1   533.4    48.3   1
  16   4   3   617.3    53.0   1
  16   4   5   445.0    59.5   1
  16   4   7     9.1    72.6   1
  16   4   9   186.0    96.8   1
  16   4  11  -209.6   134.9   1
  16   5 -22    24.4   146.4   1
  16   5 -20  2254.0   135.7   1
  16   5 -19  -169.9    87.3   1
  16   5 -18   466.9    55.3   1
  16   5 -17   708.7    52.0   1
  16   5 -15   -88.2    32.8   1
  16   5 -14    42.5    30.2   1
  16   5 -13  1523.4    43.1   1
  16   5 -12    35.2    27.0   1
  16   5 -10   231.8    27.2   1
  16   5  -9   366.1    31.2   1
  16   5  -8   276.9    30.2   1
  16   5  -7   316.2    30.7   1
  16   5  -6     5.0    31.6   1
  16   5  -5   996.1    44.5   1
  16   5  -4   -48.3    36.8   1
  16   5  -3    15.0    37.3   1
  16   5  -2   -67.6    38.0   1
  16   5  -1   193.6    39.6   1
  16   5   1    43.2    41.4   1
  16   5   2    96.8    52.2   1
  16   5   3   -86.1    56.4   1
  16   5   4   433.4    53.6   1
  16   5   6    64.8    68.7   1
  16   5   7  -162.0    72.5   1
  16   5   8   -22.3    82.8   1
  16   5   9  -196.7   115.0   1
  16   5  10   414.6   127.0   1
  16   6 -21    57.4   134.6   1
  16   6 -17   -28.1    54.4   1
  16   6 -15   -60.3    39.0   1
  16   6 -13    59.6    45.1   1
  16   6  -9     4.5    29.8   1
  16   6  -7  1080.1    37.0   1
  16   6  -5   884.3    48.9   1
  16   6  -1   170.5    36.0   1
  16   6   1   853.8    77.3   1
  16   6   3    -2.0    56.1   1
  16   6   5  1803.9    95.2   1
  16   6   7   369.9    69.1   1
  16   6   9   307.3   121.4   1
  16   7 -22  -372.0   162.1   1
  16   7 -21   146.0   147.2   1
  16   7 -20  4033.0   192.9   1
  16   7 -19   256.0   111.5   1
  16   7 -18  1057.5   112.8   1
  16   7 -17  1319.9    69.0   1
  16   7 -15    75.7    46.7   1
  16   7 -14   -22.0    37.6   1
  16   7 -13  2205.1    52.7   1
  16   7 -12   -18.3    32.2   1
  16   7 -11   -57.8    27.7   1
  16   7 -10   602.3    31.8   1
  16   7  -9   181.8    45.2   1
  16   7  -7   884.3    36.2   1
  16   7  -6   162.2    30.5   1
  16   7  -5   813.8    43.7   1
  16   7  -4   562.6    42.4   1
  16   7  -3   563.7    43.0   1
  16   7  -2   -44.2    39.6   1
  16   7  -1    10.8    36.4   1
  16   7   1   769.8    62.1   1
  16   7   2  1466.3    72.5   1
  16   7   3   753.5    67.1   1
  16   7   4   517.8    58.7   1
  16   7   5  1366.9    73.2   1
  16   7   6   218.9    62.5   1
  16   7   7    85.7    70.4   1
  16   7   8   462.1   106.8   1
  16   7  10   258.1   127.4   1
  16   8 -17  1465.3   162.3   1
  16   8 -15    41.7    50.0   1
  16   8 -13   472.9    47.0   1
  16   8 -11   383.9    31.8   1
  16   8  -9    46.2    42.1   1
  16   8  -7  1366.2    46.5   1
  16   8  -5  1335.4    44.1   1
  16   8  -3  -163.5    40.1   1
  16   8  -1    16.1    36.8   1
  16   8   1    84.7    46.7   1
  16   8   3    59.2    61.8   1
  16   8   5   354.9    57.8   1
  16   8   7   282.7    74.5   1
  16   8   9   824.4   147.7   1
  16   9 -18   700.4   114.9   1
  16   9 -17   -78.1    67.9   1
  16   9 -15  1528.0    76.8   1
  16   9 -14   -17.2    54.3   1
  16   9 -13   -48.4    47.6   1
  16   9 -12   -26.5    43.9   1
  16   9 -11   473.9    44.2   1
  16   9 -10    18.0    32.1   1
  16   9  -9   253.4    36.0   1
  16   9  -6   356.9    34.0   1
  16   9  -5   128.2    35.6   1
  16   9  -4   114.1    41.3   1
  16   9  -3   124.8    41.7   1
  16   9  -2    15.0    37.7   1
  16   9  -1   147.5    40.6   1
  16   9   1   -52.4    47.8   1
  16   9   2    33.8    49.4   1
  16   9   3   -10.9    66.1   1
  16   9   4    45.5    58.1   1
  16   9   5   -19.4    59.0   1
  16   9   6   248.2    69.2   1
  16   9   8   100.7   108.5   1
  16   9   9   581.0   161.3   1
  16   9  10   -15.9   182.3   1
  16  10 -17   -31.8   106.5   1
  16  10 -15    12.1    63.7   1
  16  10 -13  1281.2    62.3   1
  16  10 -11   540.4    75.9   1
  16  10  -9   -62.4    36.7   1
  16  10  -7     3.5    33.7   1
  16  10  -5   279.0    44.8   1
  16  10  -3   117.9    37.8   1
  16  10  -1  -172.0    40.0   1
  16  10   1   480.5    54.4   1
  16  10   3   303.5    68.6   1
  16  10   5   133.7    63.5   1
  16  10   7  -111.3    94.1   1
  16  10   9   162.2   162.5   1
  16  11 -17    -5.8   114.6   1
  16  11 -15     8.9    67.8   1
  16  11 -14   973.7    72.1   1
  16  11 -13    84.1    61.4   1
  16  11 -12  -155.1    50.5   1
  16  11 -11   187.9    54.5   1
  16  11 -10    44.1    40.3   1
  16  11  -9   -43.2    33.9   1
  16  11  -7   -14.9    36.0   1
  16  11  -6   728.9    38.9   1
  16  11  -4    -7.8    34.4   1
  16  11  -3   471.4    38.1   1
  16  11  -2  1665.4    54.8   1
  16  11  -1   877.3    48.6   1
  16  11   1   406.4    57.0   1
  16  11   2   333.1    59.7   1
  16  11   3    89.5    61.0   1
  16  11   4   514.7    71.3   1
  16  11   6   -59.0    99.4   1
  16  11   7  -293.5   134.4   1
  16  11   9  -596.5   189.9   1
  16  12 -15  -152.3    97.0   1
  16  12 -13    33.3    63.4   1
  16  12 -11  1319.2    70.5   1
  16  12  -9   -84.4    40.3   1
  16  12  -7   -95.3    43.6   1
  16  12  -5     5.1    41.6   1
  16  12  -3   -32.8    37.4   1
  16  12  -1    15.1    49.9   1
  16  12   1   -69.7    56.8   1
  16  12   3   -64.1    57.1   1
  16  12   5   107.8    88.6   1
  16  12   7  -298.3   145.4   1
  16  12   9   780.6   204.6   1
  16  13 -15   637.7    79.4   1
  16  13 -14   216.6    70.8   1
  16  13 -13    51.9    68.4   1
  16  13 -12  1363.5    74.4   1
  16  13 -11  2256.7    80.0   1
  16  13 -10   688.0    65.8   1
  16  13  -9   608.5    48.2   1
  16  13  -7   -78.6    48.2   1
  16  13  -6   -33.3    44.0   1
  16  13  -5    57.2    37.8   1
  16  13  -4   -64.9    37.5   1
  16  13  -3   880.7    49.0   1
  16  13  -2   -55.5    38.8   1
  16  13  -1   910.3    66.2   1
  16  13   1    48.0    61.7   1
  16  13   2   -18.3    65.3   1
  16  13   3   -56.9    74.9   1
  16  13   4    89.3    76.2   1
  16  13   5  1492.1    99.1   1
  16  13   6    39.4   142.9   1
  16  13   7  1545.3   169.7   1
  16  13   8  1222.7   191.8   1
  16  14 -15  2518.9   163.6   1
  16  14 -13   568.4    74.3   1
  16  14 -11   -26.6    64.1   1
  16  14  -9   -16.4    49.1   1
  16  14  -7   470.5    53.7   1
  16  14  -5   437.8    49.5   1
  16  14  -3  2281.9    62.6   1
  16  14  -1   805.8    67.6   1
  16  14   1   -11.1    66.7   1
  16  14   3   -40.0    73.9   1
  16  14   5  -301.2   116.6   1
  16  14   7    32.5   166.2   1
  16  15 -14  2308.1   107.3   1
  16  15 -13  -154.3    74.9   1
  16  15 -12   104.2    72.4   1
  16  15 -11   301.3    71.2   1
  16  15 -10   120.5    66.6   1
  16  15  -9   103.5    50.8   1
  16  15  -7    47.0    49.3   1
  16  15  -6   -11.4    59.7   1
  16  15  -5   -14.5    50.3   1
  16  15  -4   376.8    47.6   1
  16  15  -3   509.3    49.8   1
  16  15  -2    20.9    46.5   1
  16  15   2   221.1    72.2   1
  16  15   3  -114.6    74.7   1
  16  15   4   -55.0    83.0   1
  16  15   6  -220.7   146.9   1
  16  15   7  -107.3   171.0   1
  16  16  -3   115.1    51.1   1
  16  16  -1   589.0   102.2   1
  16  16   1   259.9    98.7   1
  16  17 -14     8.8    90.4   1
  16  17 -13  -333.7    88.7   1
  16  17 -12  -179.7    87.9   1
  16  17 -11    29.1    79.7   1
  16  17 -10   -51.4    78.4   1
  16  17  -9    52.8    79.9   1
  16  17  -7   189.8    58.5   1
  16  17  -6  -117.5    57.2   1
  16  17  -5  1878.3    99.4   1
  16  17  -4  1027.1    86.9   1
  16  17  -3   -57.8    67.4   1
  16  17  -2   131.7    70.7   1
  16  17  -1  1029.9   108.7   1
  16  17   2  1368.8   103.1   1
  16  17   3  1217.1   105.2   1
  16  17   4   601.2   140.4   1
  16  17   5     4.4   154.8   1
  16  17   6   860.2   181.2   1
  16  18 -13  -224.8    94.5   1
  16  18 -11  -102.6    88.4   1
  16  18  -5    80.0    86.9   1
  16  18  -3   260.0    75.6   1
  16  18  -1    30.8    75.1   1
  16  18   1   158.4    91.6   1
  16  18   3  1050.4   111.7   1
  16  18   5   223.3   164.9   1
  16  19 -14   -57.8   104.4   1
  16  19 -12    82.0   100.5   1
  16  19 -11   129.7   100.4   1
  16  19 -10  -270.7   102.0   1
  16  19  -9   128.5   102.7   1
  16  19  -7   -17.6    71.0   1
  16  19  -6  -139.5    73.6   1
  16  19  -5   933.8    93.9   1
  16  19  -4   -40.5   100.0   1
  16  19  -3  2947.2   139.2   1
  16  19  -2   639.9   108.1   1
  16  19  -1  1341.0   103.9   1
  16  19   2  -143.1   107.9   1
  16  19   3  1570.3   130.4   1
  16  19   5  -255.5   187.2   1
  16  20 -11  -147.6   112.3   1
  16  20  -9  -106.4   110.0   1
  16  20  -7   -64.7    81.4   1
  16  20  -1   316.1   124.6   1
  16  20   1  1468.6   127.7   1
  16  20   3   162.3   125.9   1
  16  21  -9   333.2   125.9   1
  16  21  -7  -251.5    92.3   1
  16  21   1  -253.0   125.0   1
  16  21   2  -259.1   134.1   1
  16  22  -9  -269.5   140.4   1
  16  22   1   405.1   152.5   1
  17   0 -19    63.4    90.2   1
  17   0 -14   478.3    47.0   1
  17   0 -11   -50.3    43.8   1
  17   0 -10   124.7    43.8   1
  17   0  -5    42.5    57.7   1
  17   1 -23    45.3   141.9   1
  17   1 -22    96.3    94.4   1
  17   1 -21   -26.8    84.9   1
  17   1 -20    54.3    74.1   1
  17   1 -19   -98.8    63.9   1
  17   1 -16   491.8    58.8   1
  17   1 -15   290.7    37.2   1
  17   1 -14   504.1    33.1   1
  17   1 -13   -54.4    33.0   1
  17   1 -12   287.8    33.4   1
  17   1 -11   660.0    34.7   1
  17   1 -10   186.7    31.1   1
  17   1  -8   414.1    45.9   1
  17   1  -7   -43.7    38.8   1
  17   1  -6   -21.4    39.2   1
  17   1  -5   -31.8    45.3   1
  17   1  -4   156.4    42.7   1
  17   1  -3  1091.0    53.3   1
  17   1   2  3239.1   107.3   1
  17   1   3  1145.2    63.6   1
  17   1   4   -17.7    62.6   1
  17   1   5   -18.2    80.2   1
  17   1   6  -214.7    95.8   1
  17   1   7  -160.1   109.0   1
  17   1   8   102.2   128.2   1
  17   1   9   262.0   119.1   1
  17   2 -23   475.1   149.6   1
  17   2 -22  1267.7   132.2   1
  17   2 -21   -65.6    84.5   1
  17   2 -20   -49.4    73.9   1
  17   2 -19  1413.2    87.7   1
  17   2 -16  1900.9    76.6   1
  17   2 -15   936.6    53.4   1
  17   2 -14   511.8    33.6   1
  17   2 -13    92.7    33.8   1
  17   2 -12  1866.5    46.7   1
  17   2 -11   -35.4    30.8   1
  17   2 -10   139.0    30.9   1
  17   2  -9  1304.1    39.7   1
  17   2  -8  1140.3    41.3   1
  17   2  -7  1601.1    50.9   1
  17   2  -6    92.3    40.0   1
  17   2  -5  2202.5    56.7   1
  17   2  -4  3011.4    62.5   1
  17   2  -3  1051.5    55.2   1
  17   2  -2   143.5    55.8   1
  17   2  -1   -86.7    88.4   1
  17   2   3  2587.1    98.0   1
  17   2   5   288.0    83.4   1
  17   2   6   -34.9    96.8   1
  17   2   7   511.7   111.2   1
  17   2   8  -116.2   103.0   1
  17   2   9   598.0   128.0   1
  17   3 -22    41.3   126.0   1
  17   3 -21   432.9    88.2   1
  17   3 -19   -85.0    64.0   1
  17   3 -18   -56.6    58.8   1
  17   3 -16    84.6    40.2   1
  17   3 -15   109.8    37.2   1
  17   3 -14   214.3    39.1   1
  17   3 -13   457.2    34.6   1
  17   3 -12   143.9    32.6   1
  17   3 -11   747.4    36.4   1
  17   3 -10    12.7    31.4   1
  17   3  -9   297.3    36.9   1
  17   3  -8   -98.6    35.3   1
  17   3  -7    98.0    39.7   1
  17   3  -6  1209.4    50.4   1
  17   3  -5    -5.0    40.4   1
  17   3  -4    85.0    39.5   1
  17   3  -2    -9.4    62.8   1
  17   3  -1  3298.8    95.3   1
  17   3   1   517.7    58.7   1
  17   3   2  3620.4   116.7   1
  17   3   4   299.1    67.0   1
  17   3   5   -55.7    69.6   1
  17   3   6    49.8    94.7   1
  17   3   8  -207.6   106.3   1
  17   3   9  1177.1   137.1   1
  17   4 -23   438.0   214.6   1
  17   4 -22   395.6   178.1   1
  17   4 -20    93.8    83.3   1
  17   4 -19    56.9    72.4   1
  17   4 -18   482.9    53.8   1
  17   4 -16   413.3    44.2   1
  17   4 -15   -25.8    43.5   1
  17   4 -14   229.4    40.5   1
  17   4 -12   549.7    36.3   1
  17   4 -11   389.8    34.8   1
  17   4 -10   118.1    34.3   1
  17   4  -9   702.9    39.4   1
  17   4  -8   112.1    39.6   1
  17   4  -7   410.5    49.2   1
  17   4  -6   348.3    42.4   1
  17   4  -5   -32.1    39.7   1
  17   4  -3   -25.2    49.0   1
  17   4  -2   263.5    70.6   1
  17   4  -1  -189.2   102.1   1
  17   4   1  -123.0    54.3   1
  17   4   2    68.8    66.6   1
  17   4   3   -89.6    57.7   1
  17   4   4   127.8    78.5   1
  17   4   5   207.6    72.5   1
  17   4   6  -284.0    80.8   1
  17   4   7  -332.9   121.4   1
  17   4   8  -113.9   110.2   1
  17   5 -21   731.4   158.4   1
  17   5 -20   -60.0    78.9   1
  17   5 -19   674.7    74.7   1
  17   5 -18  1484.4    78.0   1
  17   5 -16  1459.5    54.8   1
  17   5 -15   496.2    42.9   1
  17   5 -14   122.7    41.3   1
  17   5 -13  2456.1    67.6   1
  17   5 -12   104.4    48.9   1
  17   5 -11    -8.7    33.4   1
  17   5 -10   363.1    34.7   1
  17   5  -9   255.8    38.5   1
  17   5  -8   671.2    41.3   1
  17   5  -7   324.3    38.1   1
  17   5  -6    27.8    54.7   1
  17   5  -4    -1.4    51.8   1
  17   5  -3   115.0    50.2   1
  17   5  -2    64.0    51.1   1
  17   5  -1   650.3    54.2   1
  17   5   1   385.8    57.1   1
  17   5   2   342.7    71.7   1
  17   5   3   563.6    78.9   1
  17   5   6   313.9    85.6   1
  17   5   8   -83.0   111.6   1
  17   5   9  -305.1   134.2   1
  17   6 -22   123.0   184.0   1
  17   6 -21  1413.7   175.1   1
  17   6 -19   231.2    84.2   1
  17   6 -18   -99.8    73.5   1
  17   6 -16  2788.2    77.0   1
  17   6 -15   338.6    43.1   1
  17   6 -13   896.9    47.8   1
  17   6 -12   602.9    37.5   1
  17   6 -11    85.8    40.0   1
  17   6 -10   -27.8    33.4   1
  17   6  -9   142.7    39.4   1
  17   6  -8   636.6    41.8   1
  17   6  -7   -23.8    38.0   1
  17   6  -6   209.6    43.5   1
  17   6  -5   -58.7    40.3   1
  17   6  -4   -52.2    49.1   1
  17   6  -2  -123.5    51.8   1
  17   6  -1   258.2    47.7   1
  17   6   1   -63.5    66.4   1
  17   6   2     1.4    69.2   1
  17   6   3    10.5    75.5   1
  17   6   4    18.6    69.2   1
  17   6   5   236.7    77.8   1
  17   6   7  -192.7    87.0   1
  17   6   8  -151.3   116.7   1
  17   6   9  -676.3   172.6   1
  17   7 -19   -72.7    94.8   1
  17   7 -18   458.4    80.9   1
  17   7 -16    55.8    62.6   1
  17   7 -15  2672.9    74.7   1
  17   7 -14  -127.4    45.9   1
  17   7 -13   252.5    44.4   1
  17   7 -12   314.6    45.4   1
  17   7 -11  1111.6    44.9   1
  17   7 -10   537.3    45.5   1
  17   7  -9  1112.3    47.6   1
  17   7  -8   -57.4    38.7   1
  17   7  -7    14.9    39.6   1
  17   7  -6   -66.8    37.7   1
  17   7  -5   578.5    53.2   1
  17   7  -4   320.6    51.1   1
  17   7  -3   214.0    53.0   1
  17   7  -2    31.6    52.7   1
  17   7  -1   159.2    47.7   1
  17   7   1  5031.4   159.1   1
  17   7   2  1317.1    89.1   1
  17   7   3   381.4    81.9   1
  17   7   4    84.1    71.2   1
  17   7   5   262.6    81.5   1
  17   7   6    45.2    79.9   1
  17   7   7   -91.1   103.3   1
  17   7   8   393.3   107.9   1
  17   8 -19  -244.8   145.3   1
  17   8 -18   112.5    82.7   1
  17   8 -16    80.0    65.2   1
  17   8 -15  1276.8    73.2   1
  17   8 -14  -165.3    50.5   1
  17   8 -13  1269.4    66.2   1
  17   8 -12  1437.7    54.3   1
  17   8 -11  1160.5    47.2   1
  17   8 -10   222.7    43.3   1
  17   8  -9   786.8    72.5   1
  17   8  -8    70.3   107.9   1
  17   8  -7   -53.6    39.3   1
  17   8  -6   158.2    39.9   1
  17   8  -5   -42.8    53.2   1
  17   8  -4   293.5    67.6   1
  17   8  -3  1380.5    62.3   1
  17   8  -2  -135.7    46.0   1
  17   8  -1   162.3    48.6   1
  17   8   1  1636.1    79.0   1
  17   8   2  -192.2    76.7   1
  17   8   3   140.1    88.3   1
  17   8   4   -37.6    72.0   1
  17   8   5  -133.8    82.1   1
  17   8   6  -389.5    83.4   1
  17   8   7   -94.5   106.1   1
  17   9 -18   202.5    89.2   1
  17   9 -16  -169.1    76.0   1
  17   9 -15  -201.6    72.9   1
  17   9 -14   -77.3    60.4   1
  17   9 -12  -110.1    53.3   1
  17   9 -11   454.0    40.1   1
  17   9 -10  2290.0    65.4   1
  17   9  -7   -12.0    40.9   1
  17   9  -6   -90.6    39.4   1
  17   9  -5   -45.8    45.0   1
  17   9  -3   919.2    60.2   1
  17   9  -2   -62.7    48.8   1
  17   9  -1  -160.9   149.7   1
  17   9   1   -96.9    62.5   1
  17   9   2  -252.1    78.1   1
  17   9   3  -232.8    85.5   1
  17   9   5   -43.9    77.0   1
  17   9   6  -163.0    85.5   1
  17   9   7  1046.9   107.0   1
  17  10 -16   -63.0    84.0   1
  17  10 -15    39.7    76.1   1
  17  10 -14   -68.3    67.9   1
  17  10 -13   198.2    61.2   1
  17  10 -11   -20.6    44.7   1
  17  10 -10  1139.8    58.2   1
  17  10  -9   947.3    52.1   1
  17  10  -8  2082.9    99.4   1
  17  10  -7   -25.8    43.4   1
  17  10  -6  1709.4    55.9   1
  17  10  -5   575.6    63.5   1
  17  10  -4   227.7    56.2   1
  17  10  -3   -75.1    47.3   1
  17  10  -2  1110.9    59.2   1
  17  10  -1  1099.2    62.3   1
  17  10   1   525.0    68.9   1
  17  10   2    32.0    66.7   1
  17  10   3   195.2    90.3   1
  17  10   4   583.1    99.5   1
  17  10   6   101.2    92.8   1
  17  10   8  -367.5   151.4   1
  17  11 -16   462.8    94.9   1
  17  11 -15    30.4    81.8   1
  17  11 -14   512.6    82.3   1
  17  11 -13    32.3    66.5   1
  17  11 -12   735.2    68.8   1
  17  11 -10   412.4    47.0   1
  17  11  -9   -73.5    47.2   1
  17  11  -8   250.9    46.7   1
  17  11  -7   110.2    44.8   1
  17  11  -5   287.7    51.2   1
  17  11  -4   -19.0    42.3   1
  17  11  -3  1357.4    65.3   1
  17  11  -2   457.1    55.6   1
  17  11  -1  -146.3    53.0   1
  17  11   1  -105.1    67.6   1
  17  11   2   365.5    80.8   1
  17  11   3   975.8    94.5   1
  17  11   4   -99.4    88.1   1
  17  11   5   108.2    83.6   1
  17  11   7  -188.0   134.3   1
  17  12 -16   258.7    94.7   1
  17  12 -15   919.8    95.0   1
  17  12 -14   -52.3    76.7   1
  17  12 -10   196.0    54.2   1
  17  12  -9    61.8    59.8   1
  17  12  -8   -52.3    48.4   1
  17  12  -7    10.4    47.7   1
  17  12  -6  2884.5    85.2   1
  17  12  -4    45.4    45.1   1
  17  12  -3   899.4    53.3   1
  17  12  -2   409.2    57.6   1
  17  12  -1   756.4    80.6   1
  17  12   1   187.5    75.3   1
  17  12   2   344.0    82.9   1
  17  12   3   533.9    89.2   1
  17  12   4     2.8    80.1   1
  17  12   7  -460.4   174.7   1
  17  13 -16   968.8   107.1   1
  17  13 -15   197.5    92.9   1
  17  13 -14    -2.3    87.5   1
  17  13 -13   678.6    89.5   1
  17  13 -12  -147.1    76.5   1
  17  13 -11  -158.8    73.3   1
  17  13 -10   -13.7    55.3   1
  17  13  -9   557.5    57.5   1
  17  13  -8   394.8    62.0   1
  17  13  -6  -106.3    57.1   1
  17  13  -5   117.9    48.3   1
  17  13  -3    80.6    49.6   1
  17  13  -2   887.1    77.7   1
  17  13  -1   385.3    77.7   1
  17  13   1    57.4    84.4   1
  17  13   3   -99.8    79.1   1
  17  13   5   314.0   116.1   1
  17  13   6  2008.0   189.9   1
  17  14 -16   607.8   111.0   1
  17  14 -15   286.4   101.3   1
  17  14 -13   312.9    89.0   1
  17  14 -12   -93.1    81.5   1
  17  14 -11  -164.6    78.6   1
  17  14  -9     9.2    55.9   1
  17  14  -8   -65.2    66.0   1
  17  14  -7    14.0    62.9   1
  17  14  -6   586.4    64.3   1
  17  14  -5  -104.3    52.5   1
  17  14  -4     5.1    51.0   1
  17  14  -3  1084.4    65.5   1
  17  14  -2   492.1    56.5   1
  17  14  -1   382.9    84.2   1
  17  14   1    44.0    89.6   1
  17  14   2  1146.4   107.6   1
  17  14   4   361.5   111.3   1
  17  14   5    65.1   120.8   1
  17  15 -15   785.4   110.6   1
  17  15 -14  1178.9   111.4   1
  17  15 -13   935.3   101.7   1
  17  15 -12   671.7    93.6   1
  17  15 -11  -208.1    85.7   1
  17  15 -10     7.9    83.2   1
  17  15  -9   136.8    63.8   1
  17  15  -8   -56.6    57.7   1
  17  15  -7  -118.3    69.4   1
  17  15  -6   -25.1    67.2   1
  17  15  -5   532.8    63.6   1
  17  15  -4   858.8    67.6   1
  17  15  -3  1219.5    68.4   1
  17  15   1   290.0   102.1   1
  17  15   2   325.7   119.0   1
  17  15   3   -60.6   105.5   1
  17  15   4  1019.5   126.5   1
  17  15   5   -28.0   172.5   1
  17  16 -15   629.3   114.1   1
  17  16 -14   602.5   106.5   1
  17  16 -13  -141.7   100.3   1
  17  16 -12    34.2    99.2   1
  17  16 -10    94.6    90.8   1
  17  16  -8   440.3   108.3   1
  17  16  -7    37.6    82.7   1
  17  16  -6   -28.4    91.6   1
  17  16  -5   -71.6    75.2   1
  17  16  -4    52.6    64.1   1
  17  16  -3    57.4    63.6   1
  17  16  -2   357.4    82.2   1
  17  16   2   867.2   112.4   1
  17  16   3   844.9   123.6   1
  17  16   4   -34.1   126.3   1
  17  16   5  -207.3   189.1   1
  17  17  -8    53.4    73.3   1
  17  17  -7   105.6    72.2   1
  17  18 -13   253.6   123.3   1
  17  18 -12     6.1   120.6   1
  17  18 -11    -6.3   118.0   1
  17  18 -10  -214.2   114.4   1
  17  18  -9   105.1    77.9   1
  17  18  -8   471.4    82.1   1
  17  18  -7   292.7    83.5   1
  17  18  -6   -60.4    82.4   1
  17  18  -5    20.3   111.2   1
  17  18  -4   -34.8   114.6   1
  17  18  -3    65.8    99.1   1
  17  18  -2   297.3   118.7   1
  17  18   2   132.6   123.4   1
  17  18   3    56.3   135.6   1
  17  18   4   226.0   146.0   1
  17  19 -13   416.4   138.3   1
  17  19 -12    75.3   131.4   1
  17  19 -11  -149.7   131.9   1
  17  19 -10  -414.6   126.8   1
  17  19  -9   -77.5    84.4   1
  17  19  -8    61.9    89.6   1
  17  19  -7  -153.3    95.3   1
  17  19  -6   -26.9    95.2   1
  17  19  -5  1189.3   134.0   1
  17  19  -4  -159.7   127.7   1
  17  19  -3     5.2   115.9   1
  17  19  -1  1262.3   123.7   1
  17  19   1   666.0   133.0   1
  17  19   2   268.0   139.4   1
  17  19   3    56.1   151.4   1
  17  20 -12   -91.2   146.2   1
  17  20 -11   -59.3   142.0   1
  17  20  -9  -287.7   136.7   1
  17  20  -8   249.0   101.4   1
  17  20  -7   103.8   105.0   1
  17  20  -6  2604.0   138.8   1
  17  20  -5  -362.5   145.9   1
  17  20  -4   148.0   155.6   1
  17  20  -3   171.5   145.8   1
  17  20  -2  -183.3   166.5   1
  17  20  -1   -23.2   129.3   1
  17  20   1  2627.5   178.4   1
  17  20   2   133.6   151.5   1
  17  21 -11   203.8   157.5   1
  17  21  -9   509.6   162.2   1
  17  21  -8   336.2   112.3   1
  17  21  -7  1308.7   133.2   1
  17  21  -6  -197.6   122.0   1
  17  21  -1  1145.3   215.1   1
  17  21   1   936.0   167.8   1
  17  22  -7   266.2   131.6   1
  17  23  -8  1238.9   153.8   1
  18   0 -11   464.5    64.1   1
  18   0  -7   135.5    72.5   1
  18   1 -22   540.5   121.6   1
  18   1 -21  -121.7   107.6   1
  18   1 -20    18.1    91.4   1
  18   1 -16   220.7    51.8   1
  18   1 -15   145.2    39.0   1
  18   1 -14   824.9    48.8   1
  18   1 -13   -73.9    41.3   1
  18   1 -12   527.8    42.6   1
  18   1 -11   537.7    42.4   1
  18   1 -10    46.8    39.5   1
  18   1  -8   -33.4    66.7   1
  18   1  -7    20.0    50.7   1
  18   1  -6   242.6    53.9   1
  18   1  -5   904.0    57.4   1
  18   1  -4   756.0    55.3   1
  18   1  -3   842.6    66.1   1
  18   1  -2   653.2   107.8   1
  18   1   3  -259.3    75.7   1
  18   1   4  2943.5   118.1   1
  18   1   5   172.7   112.2   1
  18   1   6  1866.6   152.1   1
  18   1   7    77.1   145.8   1
  18   2 -21  -233.6   106.4   1
  18   2 -19  2384.7   148.6   1
  18   2 -15    86.4    40.1   1
  18   2 -13   -97.4    42.9   1
  18   2 -11    99.8    39.3   1
  18   2  -7  2249.7    68.8   1
  18   2  -5   157.1    53.1   1
  18   2  -3  1292.8    70.2   1
  18   2   3  1201.7    93.3   1
  18   2   5  -317.3   112.3   1
  18   2   7  -138.8   145.8   1
  18   3 -22  -152.6   126.8   1
  18   3 -20   619.4    99.6   1
  18   3 -19   869.2    90.4   1
  18   3 -17   188.1    55.3   1
  18   3 -16   380.8    51.1   1
  18   3 -14   -71.4    40.7   1
  18   3 -13   -76.0    42.6   1
  18   3 -11   427.3    56.2   1
  18   3 -10   136.4    42.4   1
  18   3  -8   474.7    48.2   1
  18   3  -7   -28.2    51.5   1
  18   3  -5   708.9    62.5   1
  18   3  -4  5950.0   142.2   1
  18   3  -2   -41.9    62.4   1
  18   3   1   916.5    77.1   1
  18   3   4   509.3    97.0   1
  18   3   7   332.6   149.4   1
  18   4 -21   224.8   115.6   1
  18   4 -19   -84.1    83.9   1
  18   4 -17  1405.2    71.3   1
  18   4 -15  -101.7    52.4   1
  18   4 -13   108.5    44.0   1
  18   4 -11     7.9    43.6   1
  18   4  -9  1406.9    57.8   1
  18   4  -7  1540.9    86.4   1
  18   4  -5   200.5    51.3   1
  18   4  -3  2990.2    89.9   1
  18   4  -1  1947.3   129.6   1
  18   4   1  1222.4    82.3   1
  18   4   3   -73.0    78.0   1
  18   4   5   344.0   112.0   1
  18   5 -21  -133.7   121.6   1
  18   5 -20   618.3   107.7   1
  18   5 -19    95.6    88.0   1
  18   5 -17   351.1    61.8   1
  18   5 -16  1285.2    65.6   1
  18   5 -15   -39.3    55.7   1
  18   5 -14    12.9    51.5   1
  18   5 -12   301.0   134.1   1
  18   5 -11   -89.0    40.7   1
  18   5 -10   -15.0    51.2   1
  18   5  -9   752.1    52.6   1
  18   5  -8  -106.2    46.9   1
  18   5  -7  1787.1    61.4   1
  18   5  -6   -44.5    54.1   1
  18   5  -4  -142.2    63.8   1
  18   5  -3   106.6    64.8   1
  18   5  -2   438.7    65.6   1
  18   5  -1   844.9    68.9   1
  18   5   1   366.5    74.2   1
  18   5   2    13.9    95.6   1
  18   5   3   -26.9   100.1   1
  18   5   4   -71.7    89.3   1
  18   5   6  -171.3   113.6   1
  18   5   7  -847.7   190.2   1
  18   6 -19   278.7    92.8   1
  18   6 -17   -25.0    62.7   1
  18   6 -13   277.6    45.5   1
  18   6 -11   600.6    47.4   1
  18   6  -7  1409.1    57.3   1
  18   6  -5   -49.7    65.1   1
  18   6  -1   117.4    67.1   1
  18   6   1   897.0    80.3   1
  18   6   5    57.6   106.2   1
  18   6   7  -215.3   116.2   1
  18   7 -20  -235.2   124.6   1
  18   7 -19   104.3   105.5   1
  18   7 -17  -129.1    85.0   1
  18   7 -16    15.4    67.8   1
  18   7 -15    23.6    61.6   1
  18   7 -14   -44.1    56.6   1
  18   7 -13  1467.1    57.4   1
  18   7 -12   335.7    49.0   1
  18   7 -10   -26.4    51.9   1
  18   7  -8   114.8    51.3   1
  18   7  -7   572.4    71.9   1
  18   7  -6   494.0    58.3   1
  18   7  -5  1141.4    75.4   1
  18   7  -4  1296.0    75.9   1
  18   7  -3  -115.9    66.6   1
  18   7  -2  1470.3    79.6   1
  18   7  -1   362.8    62.9   1
  18   7   1  1683.0   161.9   1
  18   7   3  -137.6   109.8   1
  18   7   4   349.8    99.0   1
  18   7   5    10.3   108.4   1
  18   7   6  -246.1   122.3   1
  18   8 -19   215.7   168.6   1
  18   8 -17    12.5    92.3   1
  18   8 -15   143.5    65.1   1
  18   8 -11  1135.1    56.0   1
  18   8  -7  1582.8    63.4   1
  18   8  -5    33.4    69.5   1
  18   8  -3   -46.4    68.9   1
  18   8  -1   -60.6    61.1   1
  18   8   1   625.4    83.0   1
  18   8   3     2.9   113.3   1
  18   8   5   549.8   118.9   1
  18   9 -19   351.5   118.7   1
  18   9 -17   486.7    97.2   1
  18   9 -16  -275.0    99.7   1
  18   9 -14    -3.9    64.4   1
  18   9 -13   362.8    62.0   1
  18   9 -11  2619.2    78.2   1
  18   9 -10  1786.3    71.0   1
  18   9  -8  1598.8   101.7   1
  18   9  -7   582.6    55.4   1
  18   9  -5   114.9    71.5   1
  18   9  -4   -54.1    70.6   1
  18   9  -2  2341.4    88.7   1
  18   9  -1   384.1    67.1   1
  18   9   1  1550.2    99.2   1
  18   9   2  -245.5   111.1   1
  18   9   4   627.2   134.3   1
  18   9   5   498.5   156.9   1
  18  10 -17   397.5   165.5   1
  18  10 -15   128.6    87.3   1
  18  10 -11   -35.3    63.7   1
  18  10  -7  2050.5    71.3   1
  18  10  -5   622.2    80.3   1
  18  10  -3  -131.5    61.9   1
  18  10  -1   -87.5    67.4   1
  18  10   1  -120.5    87.0   1
  18  10   3   -33.8   125.3   1
  18  10   5  -187.9   106.2   1
  18  11 -17     2.7   114.4   1
  18  11 -15    87.6   104.7   1
  18  11 -14  -142.6    87.8   1
  18  11 -13   -43.1    83.7   1
  18  11 -12   508.0   119.6   1
  18  11 -11   140.1    58.6   1
  18  11 -10   291.6    65.6   1
  18  11  -8   -10.7    60.0   1
  18  11  -6   646.5    72.0   1
  18  11  -5   258.5    66.5   1
  18  11  -4   144.0    77.5   1
  18  11  -3   593.6    70.2   1
  18  11  -2   491.4    73.7   1
  18  11  -1  2132.5    94.4   1
  18  11   1   207.0    97.7   1
  18  11   2    15.3   101.1   1
  18  11   3   220.1   106.9   1
  18  11   4  -211.5   147.6   1
  18  11   5   -29.8   114.4   1
  18  12 -17    -5.1   123.6   1
  18  12 -13  -186.6    90.6   1
  18  12 -11   613.7    65.1   1
  18  12  -7     0.3    58.7   1
  18  12  -5  -105.2    69.2   1
  18  12  -1   881.5    83.3   1
  18  12   1  -243.1   102.7   1
  18  12   5   207.6   124.7   1
  18  13 -16   -95.5   119.0   1
  18  13 -15  1374.7   128.8   1
  18  13 -14  1248.6   125.5   1
  18  13 -12   172.4   103.2   1
  18  13 -11     6.8    71.3   1
  18  13  -8   474.0    67.4   1
  18  13  -7   -40.8    61.4   1
  18  13  -6   910.0    80.5   1
  18  13  -4  -178.6    60.6   1
  18  13  -3   365.8    64.9   1
  18  13  -2   743.7    79.8   1
  18  13  -1   928.1   111.9   1
  18  13   1  1285.9   124.7   1
  18  13   2   313.9   120.1   1
  18  13   3  -372.0   123.8   1
  18  13   4  -116.8   120.6   1
  18  14 -15  1772.1   144.3   1
  18  14 -13  -215.7   115.1   1
  18  14 -11   104.9   100.9   1
  18  14  -9   -51.4    86.7   1
  18  14  -7   -60.0    82.8   1
  18  14  -5   -31.6    66.1   1
  18  14  -3   232.3    69.0   1
  18  14  -1   163.2   108.9   1
  18  14   1   162.9   118.1   1
  18  14   3  1314.7   128.0   1
  18  15 -14   111.4   129.8   1
  18  15 -11  -166.5   106.1   1
  18  15 -10  -144.7    77.0   1
  18  15  -8  -200.4    90.6   1
  18  15  -7    60.1   120.7   1
  18  15  -5   124.7    78.2   1
  18  15  -4   -59.3    75.8   1
  18  15  -2    58.6    77.6   1
  18  15  -1   -81.3   117.4   1
  18  15   1   -75.8   129.6   1
  18  15   2   -59.0   142.9   1
  18  16 -15  -510.7   144.6   1
  18  16 -13  -177.3   133.5   1
  18  16 -11  -136.0   118.4   1
  18  16  -7   527.8   104.5   1
  18  16  -5   -51.7    81.8   1
  18  16  -3   -32.9    84.0   1
  18  16   1   169.4   147.0   1
  18  17 -14   185.8   152.3   1
  18  17 -13   952.8   153.2   1
  18  17 -12   -87.6   138.0   1
  18  17 -11   315.4   137.4   1
  18  17 -10   -79.4    90.8   1
  18  17  -8   687.5   100.0   1
  18  17  -7   205.3   124.0   1
  18  17  -6   107.8   128.0   1
  18  17  -5   352.1   104.7   1
  18  17  -4   -89.2    91.2   1
  18  17  -3   100.9    94.3   1
  18  17  -2   345.0   117.7   1
  18  17   2   671.1   152.4   1
  18  18  -5   539.1   152.5   1
  18  19 -13  -266.0   171.8   1
  18  19 -11  -342.6   161.4   1
  18  19  -8   271.2   116.7   1
  18  19  -7   534.0   118.5   1
  18  19  -5  1623.0   184.3   1
  18  19  -4   238.3   152.1   1
  18  19  -3  2129.6   187.1   1
  18  19  -2   160.5   201.6   1
  18  20 -11  -442.6   175.6   1
  18  20  -7   497.1   134.9   1
  18  20  -3  1350.4   210.0   1
  18  21 -11   206.4   208.4   1
  18  21  -8    -1.8   136.3   1
  18  21  -7  -186.6   146.5   1
  19   0 -17   265.1    80.0   1
  19   0 -16   440.5    72.9   1
  19   0 -15   133.4    80.1   1
  19   0 -13    48.6    73.0   1
  19   1 -21   413.3   156.7   1
  19   1 -17   386.9    82.0   1
  19   1 -16   287.5    52.0   1
  19   1 -15   -29.0    52.2   1
  19   1 -14   -24.5    56.5   1
  19   1 -13    34.1    53.0   1
  19   1 -12    65.7    51.2   1
  19   1 -11  -106.5    64.6   1
  19   1 -10   985.0   106.4   1
  19   1  -9    81.5    98.0   1
  19   1  -8   294.7    68.8   1
  19   1  -7   266.7    68.1   1
  19   1  -6   200.3    67.1   1
  19   1  -5   198.0    74.0   1
  19   1  -4  -117.4    65.7   1
  19   1  -3   760.0    84.4   1
  19   1  -2    90.2   108.5   1
  19   1   3  -197.0    88.6   1
  19   1   4   630.0   139.7   1
  19   1   5  -281.8   148.0   1
  19   2 -18   278.3    94.4   1
  19   2 -16   -55.2    51.8   1
  19   2 -15  -106.5    54.3   1
  19   2 -14     2.0    58.5   1
  19   2 -13   406.9    56.2   1
  19   2 -12  -107.4    54.7   1
  19   2 -11   104.1    51.1   1
  19   2 -10   223.4    52.5   1
  19   2  -9   417.3    94.6   1
  19   2  -8  -113.7    68.8   1
  19   2  -7   176.3    69.3   1
  19   2  -6   971.6    73.9   1
  19   2  -5    39.1    67.2   1
  19   2  -4    35.8    66.0   1
  19   2  -3   368.9   101.4   1
  19   2   3  -190.3    87.1   1
  19   2   5  -334.0   126.1   1
  19   3 -20    57.5   120.2   1
  19   3 -18   113.6    76.5   1
  19   3 -17    -1.4    68.3   1
  19   3 -16    76.7    77.1   1
  19   3 -15   741.5    61.9   1
  19   3 -14   -83.2    58.9   1
  19   3 -13    -2.7    57.2   1
  19   3 -12   -97.7    52.7   1
  19   3 -11    37.0    52.1   1
  19   3 -10   -48.5    58.6   1
  19   3  -9  -102.5    58.7   1
  19   3  -8   -12.3    68.9   1
  19   3  -7  -167.3    69.7   1
  19   3  -5   532.5    69.9   1
  19   3  -4    30.7    86.9   1
  19   3  -3   936.8   111.6   1
  19   3  -2  -106.0    77.8   1
  19   3   1   224.4    94.7   1
  19   3   2   963.1   123.5   1
  19   3   4    57.4   116.7   1
  19   3   5  3690.8   189.4   1
  19   4 -20    10.6   125.1   1
  19   4 -18  -101.6    86.2   1
  19   4 -17   628.5    96.6   1
  19   4 -16    55.3    62.3   1
  19   4 -15   118.1    61.4   1
  19   4 -14   202.5    60.7   1
  19   4 -13   476.4    58.5   1
  19   4 -12  -164.3    52.3   1
  19   4 -11   -32.8    52.9   1
  19   4 -10   -70.9    60.5   1
  19   4  -9    56.2    59.4   1
  19   4  -8   729.5    65.4   1
  19   4  -7  -249.9    70.6   1
  19   4  -6   -66.2    68.6   1
  19   4  -5    20.2    65.6   1
  19   4  -3   718.8   111.4   1
  19   4   1  1956.8   115.6   1
  19   4   3  -210.6   130.5   1
  19   4   5  -177.0   131.3   1
  19   5 -20   -65.7   129.3   1
  19   5 -18    43.3    83.5   1
  19   5 -17  -127.6    74.0   1
  19   5 -16    86.4    75.7   1
  19   5 -15   103.5    71.3   1
  19   5 -13   143.4    58.6   1
  19   5 -11   464.7    74.7   1
  19   5 -10  -100.9    63.6   1
  19   5  -9   -33.4    61.2   1
  19   5  -6   983.6    74.5   1
  19   5  -4   284.9    87.7   1
  19   5  -3   661.5    86.5   1
  19   5  -2    94.0    83.8   1
  19   5  -1   -83.6    81.8   1
  19   5   1  1271.3   105.9   1
  19   5   2   109.3   125.2   1
  19   5   3   -69.8   136.8   1
  19   5   4  -222.3   119.6   1
  19   6 -20    77.4   137.0   1
  19   6 -18  -173.3    85.5   1
  19   6 -17   -92.1   100.2   1
  19   6 -16  1051.6    90.5   1
  19   6 -15  -225.8    75.3   1
  19   6 -14   -61.1    57.9   1
  19   6 -13    -9.6    87.5   1
  19   6 -12    -5.9    54.7   1
  19   6 -11   384.1    55.7   1
  19   6 -10   991.3    72.0   1
  19   6  -9  -151.8    62.7   1
  19   6  -8  -115.1    63.6   1
  19   6  -7   637.4    76.6   1
  19   6  -5    -4.1    86.5   1
  19   6  -4   347.8    88.5   1
  19   6  -3   145.6    93.0   1
  19   6  -2  2380.6   113.3   1
  19   6  -1   163.3    87.2   1
  19   6   1  -108.0    92.2   1
  19   6   2  -236.3   130.2   1
  19   6   3    95.4   143.1   1
  19   6   4   -96.2   125.5   1
  19   7 -20   789.1   163.2   1
  19   7 -18   894.0   110.9   1
  19   7 -17  -199.9    97.0   1
  19   7 -16   219.6    89.0   1
  19   7 -15   359.1    78.1   1
  19   7 -14   -42.6    65.2   1
  19   7 -13   361.0    64.8   1
  19   7 -12    89.2    73.1   1
  19   7 -11   281.5    69.4   1
  19   7 -10   288.1    71.0   1
  19   7  -9   -66.7    65.9   1
  19   7  -8   262.2    65.9   1
  19   7  -4   506.1    98.6   1
  19   7  -3   -70.4    84.9   1
  19   7  -2   -82.3    86.5   1
  19   7  -1   265.1    76.8   1
  19   7   1  -149.3   124.1   1
  19   7   2   502.3   135.8   1
  19   7   3   397.3   149.1   1
  19   7   4   181.8   126.1   1
  19   8 -18   -96.9   132.3   1
  19   8 -17    13.7   106.0   1
  19   8 -16    39.0    94.5   1
  19   8 -15    97.4    99.3   1
  19   8 -14   433.1    80.3   1
  19   8 -13  1001.9    69.6   1
  19   8 -12   473.2    64.7   1
  19   8 -11   -91.6   132.2   1
  19   8  -9   128.3    68.5   1
  19   8  -8    41.0    65.2   1
  19   8  -7    26.2    65.3   1
  19   8  -6   762.4    79.4   1
  19   8  -5   936.2   101.7   1
  19   8  -4   -58.0    95.7   1
  19   8  -3     8.4    90.4   1
  19   8  -2  -191.4    90.6   1
  19   8  -1    56.6    79.3   1
  19   8   1   795.0   179.2   1
  19   8   2    33.1   144.2   1
  19   8   3    88.0   148.4   1
  19   9 -18   -23.2   141.8   1
  19   9 -17  1041.0   138.6   1
  19   9 -16  1445.3   119.3   1
  19   9 -15   151.6    94.2   1
  19   9 -14    62.6    81.8   1
  19   9 -13   155.6    64.2   1
  19   9 -12   -58.5    65.9   1
  19   9 -11   742.0    81.5   1
  19   9  -8    50.5    69.4   1
  19   9  -7   981.1    74.6   1
  19   9  -6  -101.2    79.9   1
  19   9  -4   465.9   103.0   1
  19   9  -3  -114.4    96.7   1
  19   9  -2  3036.2   110.2   1
  19   9  -1    95.1    81.7   1
  19   9   2   -39.8   148.7   1
  19   9   3  -265.5   162.2   1
  19   9   4   981.4   185.8   1
  19  10 -18   396.4   157.4   1
  19  10 -17   646.5   152.6   1
  19  10 -16  -130.3   126.3   1
  19  10 -15    81.5   117.2   1
  19  10 -13  -301.6   101.6   1
  19  10 -12  -231.6    62.3   1
  19  10 -11   486.0    85.0   1
  19  10  -8   -97.5    70.1   1
  19  10  -7  3065.3    97.4   1
  19  10  -6   -87.5    82.1   1
  19  10  -4  -117.2   102.5   1
  19  10  -3  -119.8    83.8   1
  19  10  -2  -107.1    84.9   1
  19  10  -1  2308.7   117.1   1
  19  10   1    84.8   119.3   1
  19  10   2   416.0   127.0   1
  19  10   3  -189.1   172.3   1
  19  11 -17  -325.8   156.3   1
  19  11 -14    46.0   114.6   1
  19  11 -13   448.3   109.4   1
  19  11 -12  1010.7    87.0   1
  19  11 -11  1399.3   117.4   1
  19  11 -10   719.4    84.8   1
  19  11  -7    18.6    70.7   1
  19  11  -6  1261.9    95.9   1
  19  11  -5   201.4    85.6   1
  19  11  -4   -74.2   109.9   1
  19  11  -3   228.0    88.5   1
  19  11  -2  1674.1   105.9   1
  19  11  -1     5.8   137.4   1
  19  11   1  -136.8   123.5   1
  19  11   2    82.8   135.0   1
  19  11   3   330.4   185.9   1
  19  12 -17  2517.2   194.8   1
  19  12 -15   547.9   142.4   1
  19  12 -14   974.4   135.6   1
  19  12 -11   -98.4   104.2   1
  19  12 -10  -157.8    85.2   1
  19  12  -9   340.0    85.4   1
  19  12  -8   -96.6    82.9   1
  19  12  -7   194.4    79.3   1
  19  12  -6   458.1    94.8   1
  19  12  -5  1063.5    96.4   1
  19  12  -4    32.3    88.9   1
  19  12  -3   -87.9    94.1   1
  19  12  -2  -224.2    94.9   1
  19  12  -1   122.7    98.0   1
  19  12   1   -72.3   133.8   1
  19  12   2  -241.4   142.9   1
  19  13 -15   475.8   153.1   1
  19  13 -14   622.4   145.5   1
  19  13 -12   481.0    93.9   1
  19  13 -11    -6.0    79.5   1
  19  13 -10   -82.6    90.1   1
  19  13  -9  1443.5   101.0   1
  19  13  -8   -44.2    88.1   1
  19  13  -7  -110.0   100.9   1
  19  13  -5   -89.5    95.6   1
  19  13  -4   -97.7    81.5   1
  19  13  -3   -13.5   101.0   1
  19  13  -2    65.8   103.0   1
  19  13  -1  -148.8   132.4   1
  19  13   1   -89.6   145.2   1
  19  13   2  1272.0   168.1   1
  19  14 -16   290.3   174.6   1
  19  14 -15  1905.0   188.7   1
  19  14 -11   334.2    95.4   1
  19  14 -10   -51.8   110.3   1
  19  14  -9  -118.8   116.0   1
  19  14  -8   -65.2   114.5   1
  19  14  -7   486.3   112.7   1
  19  14  -6   500.9   108.2   1
  19  14  -4  -179.4    90.4   1
  19  14  -3  -168.0    91.2   1
  19  14  -2   -75.1   109.4   1
  19  14  -1     3.7   145.5   1
  19  14   1  -270.3   159.1   1
  19  15 -16  1964.9   204.6   1
  19  15 -13   -40.1   155.9   1
  19  15 -12  1007.6   162.8   1
  19  15 -11   681.2   106.3   1
  19  15 -10   -16.2    98.0   1
  19  15  -9  -103.4   126.0   1
  19  15  -8  1847.8   144.7   1
  19  15  -7   445.2   120.6   1
  19  15  -6  -264.6    93.1   1
  19  15  -5   259.1    96.9   1
  19  15  -3  -145.6    98.9   1
  19  15  -2    59.4   125.7   1
  19  15  -1   360.7   165.8   1
  19  16 -15   -89.6   185.0   1
  19  16 -14  -120.0   175.7   1
  19  16 -13     2.2   165.9   1
  19  16 -12  -198.6   163.8   1
  19  16 -10   311.5   113.8   1
  19  16  -9   -35.8   135.9   1
  19  16  -8  1704.2   146.7   1
  19  16  -7   -33.9   131.4   1
  19  16  -6   414.4   107.6   1
  19  16  -5   185.7   106.6   1
  19  16  -4   282.7   107.3   1
  19  16  -2  2581.2   139.3   1
  19  17 -14  -306.8   188.2   1
  19  17 -13   -12.6   178.2   1
  19  17 -10   177.0   121.6   1
  19  17  -9  -455.9   117.2   1
  19  17  -8   928.3   155.5   1
  19  17  -7  3177.7   177.6   1
  19  17  -6   726.4   143.9   1
  19  17  -5   334.7   119.8   1
  19  17  -4    30.2   119.3   1
  19  17  -3   933.8   128.1   1
  19  18 -12  -292.6   189.8   1
  19  18 -10  2067.9   159.0   1
  19  18  -9  1836.8   159.2   1
  19  18  -8   952.5   141.4   1
  19  18  -6   967.9   204.5   1
  19  18  -5   261.0   136.5   1
  19  18  -4    -3.2   131.6   1
  19  18  -3   -56.5   136.1   1
  19  19  -9    19.5   143.7   1
  19  19  -8   -55.6   143.6   1
  20   0 -13  -116.3    98.6   1
  20   1 -18  4370.6   157.3   1
  20   1 -17    74.9    74.1   1
  20   1 -16   -80.9    73.7   1
  20   1 -15   276.4    78.6   1
  20   1 -14   546.6    76.8   1
  20   1 -13   109.0    80.7   1
  20   1 -12  1055.0    75.5   1
  20   1 -11   -60.2    66.2   1
  20   1  -9   344.1    97.0   1
  20   1  -8    53.4    92.9   1
  20   1  -7  -133.3    89.1   1
  20   1  -6   -64.9    88.5   1
  20   1  -5    -8.9    90.1   1
  20   1  -4    63.9    85.4   1
  20   1  -3  -177.9   104.0   1
  20   1  -2   -46.3   150.3   1
  20   1   2   780.1   137.8   1
  20   1   3   -57.7   122.7   1
  20   2 -19   116.7   125.0   1
  20   2 -17  -145.7    72.2   1
  20   2 -15  -214.9    78.3   1
  20   2 -13  -148.7    71.0   1
  20   2  -9  -195.5    96.0   1
  20   2  -7   -61.1    90.1   1
  20   2  -5  2543.4   113.2   1
  20   2  -3  1185.2   115.7   1
  20   3 -19   728.9   109.5   1
  20   3 -18    77.6    95.2   1
  20   3 -17  1040.3   122.0   1
  20   3 -16    -5.2    75.3   1
  20   3 -15   220.0    79.6   1
  20   3 -14    -0.8    77.0   1
  20   3 -13  -146.9    71.4   1
  20   3 -12   -44.3    67.6   1
  20   3 -11  -234.2    66.7   1
  20   3  -9  -295.9    78.6   1
  20   3  -8   871.8   101.0   1
  20   3  -7  -101.4    90.6   1
  20   3  -5  -232.9    87.6   1
  20   3  -4  1334.5   119.9   1
  20   3  -2  -106.7   150.7   1
  20   3   1   418.7   127.4   1
  20   3   2   143.3   136.0   1
  20   4 -19   -17.4   142.6   1
  20   4 -17    -9.6    88.0   1
  20   4 -15   -73.2    70.7   1
  20   4 -13    91.3    73.2   1
  20   4 -11   460.4    68.4   1
  20   4  -9    59.0    88.1   1
  20   4  -7   433.1   106.2   1
  20   4  -5   788.8    91.3   1
  20   4  -3   -80.7   135.5   1
  20   4  -1  -212.8   148.1   1
  20   4   1    -2.8   154.9   1
  20   5 -18  -193.0   100.1   1
  20   5 -17  -209.2    91.4   1
  20   5 -16   325.9   100.0   1
  20   5 -14  -201.0    75.8   1
  20   5 -13  -171.1    75.6   1
  20   5 -12  -119.6    70.6   1
  20   5 -11   -48.9    86.2   1
  20   5  -9  -185.6    83.8   1
  20   5  -8  -300.8    80.3   1
  20   5  -7  -187.9    93.4   1
  20   5  -6   -61.6    92.4   1
  20   5  -4  -300.3   114.9   1
  20   5  -3  -155.0   113.6   1
  20   5  -2  -260.6   114.2   1
  20   5  -1   -82.7   152.6   1
  20   5   1  -220.4   127.9   1
  20   5   2  -374.6   172.5   1
  20   6 -17   318.0   100.6   1
  20   6 -15   761.3    81.0   1
  20   6 -13  -160.8    76.6   1
  20   6 -11   448.5    92.5   1
  20   6  -9   -90.5    86.7   1
  20   6  -7   803.4    98.4   1
  20   6  -5   256.7   124.4   1
  20   6  -3    75.0   118.4   1
  20   6  -1  -166.7   118.1   1
  20   6   1   -10.0   129.1   1
  20   7 -18   924.2   125.2   1
  20   7 -17   366.6   126.0   1
  20   7 -16   137.0   112.6   1
  20   7 -15  -395.4    99.8   1
  20   7 -14   101.4    74.0   1
  20   7 -13   209.2    91.4   1
  20   7 -12   181.8    77.4   1
  20   7 -11    67.5    96.5   1
  20   7  -9    70.2   108.7   1
  20   7  -8  -126.4    86.2   1
  20   7  -7   132.2   157.5   1
  20   7  -6    73.7    91.7   1
  20   7  -5  -204.5   125.5   1
  20   7  -4   215.6   126.2   1
  20   7  -3   741.8   129.3   1
  20   7  -1    90.7   104.3   1
  20   7   1  -186.5   129.3   1
  20   8 -17   -69.6   139.0   1
  20   8 -13   723.3   118.5   1
  20   8 -11   186.8    99.8   1
  20   8  -9   367.3    93.0   1
  20   8  -7   295.8    82.7   1
  20   8  -3   206.2   133.4   1
  20   8  -1  1911.4   132.6   1
  20   9 -17  -165.7   144.4   1
  20   9 -15  -153.9   112.8   1
  20   9 -14   362.8    85.4   1
  20   9 -13  -154.3    87.9   1
  20   9 -12  1654.3    98.7   1
  20   9  -8   -69.5    91.3   1
  20   9  -7  1205.4    93.7   1
  20   9  -6  1097.5   146.9   1
  20   9  -5   -69.9   135.3   1
  20   9  -4   760.5   141.4   1
  20   9  -3    21.1   187.9   1
  20   9  -2   694.1   117.2   1
  20   9  -1   239.2   115.6   1
  20   9   1  -144.0   143.5   1
  20  10 -13  -104.4    82.6   1
  20  10 -11   414.4   127.3   1
  20  10  -9  2322.9   175.2   1
  20  10  -3   570.2   144.6   1
  20  10  -1   185.8   122.4   1
  20  11 -16   764.1   178.2   1
  20  11 -15    84.8   154.5   1
  20  11 -14   278.8   153.1   1
  20  11 -13  1607.5   118.6   1
  20  11 -12   -24.5   119.9   1
  20  11 -11   644.6   154.1   1
  20  11  -8  -274.0   117.3   1
  20  11  -7   252.7    95.4   1
  20  11  -6   192.5   115.5   1
  20  11  -5   173.9   146.2   1
  20  11  -4  -478.7   146.9   1
  20  11  -3  1164.8   131.2   1
  20  11  -2    76.2   120.8   1
  20  11  -1   357.7   128.8   1
  20  12 -15   814.4   180.9   1
  20  12 -13   867.6   120.5   1
  20  12 -11   244.2   119.8   1
  20  12  -9   298.8   112.7   1
  20  12  -7   873.8   132.3   1
  20  12  -5   -61.2   118.5   1
  20  12  -3    52.7   124.6   1
  20  13 -14   359.4   179.1   1
  20  13 -12  -263.6   113.7   1
  20  13 -11  1900.2   145.0   1
  20  13  -9   854.2   124.0   1
  20  13  -8   921.7   115.8   1
  20  13  -6  1909.4   150.8   1
  20  13  -4  -121.4   127.9   1
  20  13  -3   965.9   172.0   1
  20  13  -2  -106.2   135.3   1
  20  14 -11    88.1   158.5   1
  20  14  -9   313.8   122.6   1
  20  14  -5  1354.6   131.3   1
  20  14  -3  -239.6   148.1   1
  20  15 -12  -247.3   137.4   1
  20  15 -11   -89.3   133.0   1
  20  15  -9  -375.7   163.0   1
  20  15  -8  4381.2   179.5   1
  20  15  -7  1125.4   169.0   1
  20  15  -6   379.5   125.2   1
  20  15  -4  1014.6   138.0   1
  20  16  -9   -66.6   177.8   1
  20  16  -7  -318.2   133.5   1
  21   1 -16  1053.7   115.7   1
  21   1 -15   203.9   103.7   1
  21   1 -14   241.6    95.4   1
  21   1 -13    38.7    92.2   1
  21   1 -12  2782.7   119.8   1
  21   1 -10   438.2   119.4   1
  21   1  -9   150.5   129.6   1
  21   1  -8  1345.1   139.3   1
  21   1  -7   262.2   128.5   1
  21   1  -6   282.0   124.5   1
  21   1  -5  -119.3   117.3   1
  21   1  -4  -119.5   109.6   1
  21   1  -2  -112.7   199.1   1
  21   2 -16   -74.5   109.2   1
  21   2 -15   385.8   103.4   1
  21   2 -13   -98.3    92.4   1
  21   2 -12   144.1    92.7   1
  21   2 -11   -23.7    85.2   1
  21   2 -10   615.5   105.6   1
  21   2  -9  -259.6   132.7   1
  21   2  -8   167.2   130.8   1
  21   2  -7  2335.5   147.8   1
  21   2  -6  -410.4   123.5   1
  21   2  -5   355.5   118.1   1
  21   2  -3   695.3   146.2   1
  21   3 -16    49.5    98.7   1
  21   3 -14   510.0    99.5   1
  21   3 -11  -216.2   108.9   1
  21   3 -10  -118.5   105.7   1
  21   3  -8    -9.3   130.4   1
  21   3  -7  -171.1   127.7   1
  21   3  -5  -233.6   116.8   1
  21   3  -4  -181.9   149.0   1
  21   4 -16  -161.4   103.0   1
  21   4 -15  -137.5   107.0   1
  21   4 -14   174.4   101.6   1
  21   4 -13   103.2    96.7   1
  21   4 -12  1074.9   104.1   1
  21   4 -11   195.9   112.8   1
  21   4 -10  -395.1   108.1   1
  21   4  -9  -155.8   104.0   1
  21   4  -8  -407.8   134.6   1
  21   4  -7    48.8   127.7   1
  21   4  -6  -207.4   126.6   1
  21   4  -5    28.6   160.8   1
  21   4  -3  1601.9   163.4   1
  21   5 -15   695.7   113.2   1
  21   5 -14   714.7   141.3   1
  21   5 -12   -18.6    95.6   1
  21   5 -11   387.0   117.5   1
  21   5 -10   551.8   117.5   1
  21   5  -9  -185.8   107.6   1
  21   5  -6   245.6   126.5   1
  21   5  -4  -217.3   157.6   1
  21   5  -3  -465.7   161.2   1
  21   6 -14  2658.9   134.5   1
  21   6 -13  -239.2   104.6   1
  21   6 -11  -188.1   120.6   1
  21   6 -10   135.9   142.2   1
  21   6  -7   110.2   131.1   1
  21   6  -5  -141.4   172.2   1
  21   6  -4  -503.9   160.2   1
  21   7 -15   570.7   112.2   1
  21   7 -13    -5.1   105.3   1
  21   7 -12  -301.9   129.6   1
  21   7 -11    20.8   123.9   1
  21   7 -10  1431.6   131.6   1
  21   7  -9  -400.2   116.8   1
  21   7  -8  -153.5   107.7   1
  21   7  -6   470.9   128.0   1
  21   7  -5   -55.4   169.2   1
  21   7  -4   -17.8   168.3   1
  21   7  -3   374.6   167.0   1
  21   7  -2  -523.4   165.4   1
  21   8 -14   133.6   120.5   1
  21   8 -12   340.0   138.7   1
  21   8 -11  -158.2   126.5   1
  21   8 -10   -96.1   125.3   1
  21   8  -9   -80.4   125.1   1
  21   8  -6   132.4   183.4   1
  21   8  -5   956.6   182.8   1
  21   8  -3  -166.9   173.9   1
  21   9 -13   436.5   118.4   1
  21   9 -11  1192.1   189.1   1
  21   9 -10   278.7   131.1   1
  21   9  -8    18.5   119.9   1
  21   9  -7   288.8   125.5   1
  21   9  -5   364.9   189.1   1
  21  10 -13  1904.3   146.7   1
  21  10 -12  -378.3   151.5   1
  21  10  -9    14.1   130.9   1
  21  10  -8  -339.2   127.2   1
  21  10  -7   124.6   123.5   1
  21  10  -5   901.0   201.1   1
  21  10  -4   266.9   189.5   1
  21  11 -12  -182.7   157.4   1
  21  11  -9  1435.9   146.2   1
  21  11  -8    -1.1   134.4   1
  21  11  -7   126.7   164.7   1
  21  11  -6  1203.0   166.3   1
  21  12  -8   337.5   138.4   1
  22   1 -12   561.0   127.6   1
  22   1 -10   709.3   194.0   1
  22   1  -9     0.3   179.6   1
  22   1  -8   572.3   177.1   1
  22   1  -7   658.2   173.2   1
  22   1  -6  -224.2   222.5   1
  22   2  -7  -155.7   171.5   1
  22   3 -12  1461.0   134.4   1
  22   3 -10  -133.9   145.0   1
  22   3  -9  1814.7   196.2   1
  22   3  -8   298.6   177.9   1
  22   3  -7   249.1   171.9   1
  22   3  -6   154.2   169.8   1
  22   4  -9   -42.6   215.4   1
  22   4  -7  -182.5   170.3   1
  22   5  -9  -289.4   148.0   1
   0   1   8  1980.0    32.8   2
   0   1   9   171.7    10.9   2
   0   2   5   104.5     3.6   2
   0   2   7   523.8    15.5   2
   0   2   9    42.3    10.2   2
   0   2  11   236.1    21.8   2
   0   3   1    19.7     0.8   2
   0   3   7   164.9    13.7   2
   0   3  10   331.3    15.0   2
   0   3  11   174.6    18.1   2
   0   4   5   187.8     6.8   2
   0   4   7   235.8     7.1   2
   0   4   9    -4.2     8.6   2
   0   5   6   393.8    23.4   2
   0   5   7  1011.4    18.1   2
   0   5   8  2540.5    53.3   2
   0   5   9  2023.7    57.5   2
   0   5  14   633.4    61.3   2
   0   6   7  1081.6    28.1   2
   0   7   3  1564.0    40.4   2
   0   7   4  1302.6    19.2   2
   0   7   5   113.5    12.4   2
   0   7   6    59.7     5.8   2
   0   7   8    48.3     7.5   2
   0   8   5   305.0     8.7   2
   0   8   7    34.2     9.7   2
   0   9   2    70.2     9.4   2
   0   9   4   960.8    66.9   2
   0   9   5    25.1     5.4   2
   0   9   7  1330.2    26.3   2
   0   9   8   542.8    29.6   2
   0   9  10  1006.3    23.8   2
   0  10   1   290.0    12.1   2
   0  10   3   905.1    16.5   2
   0  10   7    45.5     7.3   2
   0  10  11   139.5    16.3   2
   0  10  13  1660.7    89.9   2
   0  11   1    27.3     7.9   2
   0  11   2  5557.0    98.5   2
   0  11   3    14.6     8.2   2
   0  11   4   341.5    13.9   2
   0  11   5   261.5     8.9   2
   0  11   7   415.9    15.6   2
   0  11   8   519.7    14.7   2
   0  11   9   459.7    17.9   2
   0  12   1   945.0    13.9   2
   0  12   5   429.8    12.2   2
   0  12   7    43.3     9.0   2
   0  12  11   296.9    18.4   2
   0  13   1   634.4    12.2   2
   0  13   2  2595.4    79.4   2
   0  13   5   335.9    13.5   2
   0  13   7  2045.1   133.8   2
   0  13   8    89.8    14.2   2
   0  13   9   171.2    17.1   2
   0  14   5   325.3    14.0   2
   0  15   1   813.2    21.3   2
   0  15   2    18.1     8.1   2
   0  15   4    10.3    11.8   2
   0  15  11  2422.1   154.0   2
   0  17   1   244.5    11.8   2
   0  17   2   169.1    14.7   2
   0  17  10    20.3    38.3   2
   0  18   1    43.9    23.6   2
   0  18   5  1039.7    53.2   2
   0  18  11  1013.7    67.8   2
   0  19   1   312.9    20.0   2
   0  19   5   -14.7    19.9   2
   0  20   1   709.3    29.0   2
   0  22   3    92.8    44.8   2
   0  23   3   207.4    22.5   2
   1   0  16     8.2    20.9   2
   1   0  17    -5.5    26.7   2
   1   1 -11   511.3    19.0   2
   1   1  -8  1161.8    18.8   2
   1   1  -7    11.0     5.0   2
   1   1  -6   107.6     5.3   2
   1   1  -3    41.4     1.8   2
   1   1   4   954.4    17.1   2
   1   1   5   231.2     8.1   2
   1   1   6   132.1     8.1   2
   1   1   7   147.6     9.2   2
   1   1   8    17.2     7.6   2
   1   1   9    33.6     9.4   2
   1   1  10    18.2    13.6   2
   1   1  11  1544.2    29.6   2
   1   1  17   460.3    21.1   2
   1   2 -21    69.7    56.6   2
   1   2 -20   409.4    24.8   2
   1   2 -19   143.5    21.1   2
   1   2 -18   110.7    51.7   2
   1   2 -17  1072.1    20.7   2
   1   2 -16    61.5    28.0   2
   1   2 -15   208.8    15.6   2
   1   2 -14   167.0    18.8   2
   1   2 -13  2837.9    46.5   2
   1   2 -12     9.2    11.5   2
   1   2 -11    20.2     9.9   2
   1   2 -10  2300.0    51.4   2
   1   2  -9   599.9    16.0   2
   1   2  -8    43.9     6.4   2
   1   2  -7    46.0     5.6   2
   1   2   6   120.6     6.0   2
   1   2   7  5213.2    88.3   2
   1   2   8   339.2    11.4   2
   1   2   9  4997.7    74.7   2
   1   2  10   341.9    13.7   2
   1   2  11   546.2    15.7   2
   1   2  12    -0.5    12.1   2
   1   2  13   116.8    14.2   2
   1   2  14   349.0    17.3   2
   1   2  15   403.7    17.3   2
   1   2  16    50.8    16.2   2
   1   2  17   255.0    16.5   2
   1   2  18   225.3    17.4   2
   1   2  19   113.8    22.9   2
   1   2  20   344.7    44.8   2
   1   3 -25  1146.8    81.3   2
   1   3 -24   390.5    62.9   2
   1   3 -23   598.8    47.8   2
   1   3 -22   127.5    39.7   2
   1   3 -21   128.3    29.2   2
   1   3 -20   -19.6    23.8   2
   1   3 -19    12.5    19.6   2
   1   3 -18    -1.6    16.8   2
   1   3 -17    28.1    15.5   2
   1   3 -16    38.6    17.2   2
   1   3 -15   148.2    15.3   2
   1   3 -14   -25.5    12.7   2
   1   3 -13   314.0    16.4   2
   1   3 -12   254.1    13.4   2
   1   3 -11   475.7    14.7   2
   1   3 -10   463.0    13.6   2
   1   3  -9   294.0    11.0   2
   1   3  -8    17.8     7.4   2
   1   3   4  1703.4    39.1   2
   1   3   5   444.0    11.2   2
   1   3   6   263.8     8.9   2
   1   3   7   665.2    14.3   2
   1   3   8   781.0    18.2   2
   1   3   9   659.9    15.4   2
   1   3  10   849.4    17.6   2
   1   3  11  2786.1    42.7   2
   1   3  12    12.9    12.5   2
   1   3  13     9.1    12.5   2
   1   3  14    22.6    13.9   2
   1   3  15    -6.2    13.4   2
   1   3  16    96.1    14.1   2
   1   3  17    37.2    15.1   2
   1   3  18   121.6    17.7   2
   1   3  19   -16.1    20.4   2
   1   3  20   -73.0    25.0   2
   1   3  21   -61.0    34.1   2
   1   3  22   761.8    50.2   2
   1   3  23  2640.6    80.2   2
   1   3  24   987.5   110.2   2
   1   4 -25   335.9   102.5   2
   1   4 -24  1309.2    68.0   2
   1   4 -23    63.4    67.2   2
   1   4 -22   146.5    37.3   2
   1   4 -21   -37.4    29.9   2
   1   4 -20   815.8    29.0   2
   1   4 -19   350.1    21.1   2
   1   4 -18   101.7    17.4   2
   1   4 -17    65.9    15.4   2
   1   4 -16  1643.5    24.7   2
   1   4 -15    98.0    15.7   2
   1   4 -14    20.8    15.1   2
   1   4 -13   650.0    17.0   2
   1   4 -12    16.9    12.7   2
   1   4 -11   878.3    21.3   2
   1   4 -10   976.3    17.3   2
   1   4  -9    40.6     8.6   2
   1   4  -8   143.0     8.6   2
   1   4  -7   716.6    14.8   2
   1   4  -5   205.7     8.0   2
   1   4   5   201.4     7.5   2
   1   4   6  2580.2    67.3   2
   1   4   7  1183.1    20.2   2
   1   4   8   462.8    12.6   2
   1   4   9    10.0     9.1   2
   1   4  10   619.4    16.3   2
   1   4  11   107.1    11.6   2
   1   4  12   681.7    17.4   2
   1   4  13   115.6    13.5   2
   1   4  14   -15.7    13.6   2
   1   4  15    22.5    12.9   2
   1   4  16    97.6    14.4   2
   1   4  17   941.4    21.4   2
   1   4  18   -23.3    18.9   2
   1   4  19   824.3    27.3   2
   1   4  20   614.2    33.4   2
   1   4  21   630.6    38.3   2
   1   4  22    30.4    44.6   2
   1   4  23   -96.1    57.2   2
   1   4  24    51.9    74.8   2
   1   5 -25   176.8    80.8   2
   1   5 -24   221.4    62.3   2
   1   5 -23   110.6    46.9   2
   1   5 -22     7.5    37.6   2
   1   5 -21  1272.8    37.9   2
   1   5 -20    53.3    24.7   2
   1   5 -19   -62.2    20.5   2
   1   5 -18   435.7    19.0   2
   1   5 -17    -2.5    15.0   2
   1   5 -16    12.5    14.9   2
   1   5 -15     6.0    13.3   2
   1   5 -14   234.0    16.2   2
   1   5 -13   872.4    20.0   2
   1   5 -12   204.0    12.7   2
   1   5 -11   251.7    12.7   2
   1   5 -10   116.9    11.2   2
   1   5  -9  1099.1    25.2   2
   1   5  -8  3317.2    44.8   2
   1   5  -7    18.1     6.7   2
   1   5  -2  2391.4    54.7   2
   1   5   5    43.5     5.3   2
   1   5   7   133.0     9.6   2
   1   5   8  1626.8    34.5   2
   1   5   9   327.4    12.6   2
   1   5  10   325.7    13.7   2
   1   5  11  1002.3    19.2   2
   1   5  12    47.7    12.2   2
   1   5  13  2166.1    29.2   2
   1   5  14     2.0    13.5   2
   1   5  15  3035.7    31.8   2
   1   5  16   -24.0    13.7   2
   1   5  17    75.6    16.1   2
   1   5  18    29.2    18.6   2
   1   5  19    -9.4    21.6   2
   1   5  20   193.2    27.5   2
   1   5  21  2667.1    56.5   2
   1   5  22   490.7    67.3   2
   1   5  23  1292.2    66.7   2
   1   5  24  -195.9    77.2   2
   1   6 -25  2275.0    98.5   2
   1   6 -24   -51.3    63.8   2
   1   6 -23   -36.8    49.4   2
   1   6 -22    69.9    39.5   2
   1   6 -21   112.9    31.6   2
   1   6 -20   915.0    30.4   2
   1   6 -19   193.4    21.8   2
   1   6 -18   145.6    16.9   2
   1   6 -17   -10.8    13.9   2
   1   6 -16   760.2    19.3   2
   1   6 -15    62.7    13.5   2
   1   6 -14    38.2    16.0   2
   1   6 -13   318.2    18.5   2
   1   6 -12   877.2    20.9   2
   1   6 -11   510.0    15.2   2
   1   6 -10   227.0    13.8   2
   1   6  -9   449.3    14.8   2
   1   6  -8   122.7     8.6   2
   1   6   5   480.5    12.2   2
   1   6   6   322.6     8.4   2
   1   6   7   138.5     9.6   2
   1   6   8    28.8     7.9   2
   1   6   9   270.4    10.7   2
   1   6  10   500.2    14.5   2
   1   6  11    41.8    11.3   2
   1   6  12   412.0    16.4   2
   1   6  13   747.7    17.0   2
   1   6  14   148.5    13.5   2
   1   6  15   172.0    13.9   2
   1   6  16  1244.6    22.4   2
   1   6  17   -38.7    16.3   2
   1   6  18  2081.0    32.4   2
   1   6  19   441.9    24.8   2
   1   6  20  1077.5    34.4   2
   1   6  21    18.3    34.4   2
   1   6  22   403.5    44.7   2
   1   6  23   -69.1    53.5   2
   1   6  24  -174.8    80.7   2
   1   7 -25  -164.4    86.0   2
   1   7 -24   235.3    65.4   2
   1   7 -23   -85.8    50.5   2
   1   7 -22   119.7    37.6   2
   1   7 -21   -29.1    27.1   2
   1   7 -20   642.1    25.3   2
   1   7 -19  2277.5    31.8   2
   1   7 -18    25.6    16.8   2
   1   7 -17    18.0    15.2   2
   1   7 -16   315.9    16.6   2
   1   7 -15  3297.3    36.4   2
   1   7 -14     1.2    12.8   2
   1   7 -13   782.4    18.8   2
   1   7 -12   562.1    18.1   2
   1   7 -11   913.3    19.9   2
   1   7 -10    40.7    10.0   2
   1   7  -9    96.6     8.8   2
   1   7  -7   633.4    16.2   2
   1   7  -6    26.9     6.2   2
   1   7   3   499.5    11.8   2
   1   7   4    62.4     4.5   2
   1   7   5  1294.7    28.6   2
   1   7   6    46.1     7.3   2
   1   7   7    67.1     7.5   2
   1   7   8   286.7    10.8   2
   1   7   9   813.7    17.5   2
   1   7  10   955.2    20.5   2
   1   7  11   140.2    11.6   2
   1   7  12  1762.9    26.8   2
   1   7  13   136.2    12.7   2
   1   7  14   -24.8    16.3   2
   1   7  15   -12.7    12.4   2
   1   7  16   738.1    18.1   2
   1   7  17  3817.2    38.0   2
   1   7  18   -17.4    19.0   2
   1   7  19   482.0    28.0   2
   1   7  20   267.7    30.5   2
   1   7  21    95.9    39.8   2
   1   7  22   751.2    49.0   2
   1   7  23    49.8    59.2   2
   1   7  24   401.3    76.2   2
   1   8 -25   159.5    78.9   2
   1   8 -24   -97.9    60.7   2
   1   8 -23   316.5    43.5   2
   1   8 -22   276.4    38.5   2
   1   8 -21    52.7    28.0   2
   1   8 -20    31.5    23.0   2
   1   8 -19   -13.2    20.9   2
   1   8 -18  1082.1    25.0   2
   1   8 -17   136.3    19.9   2
   1   8 -16   733.8    21.5   2
   1   8 -15   646.3    17.2   2
   1   8 -14   190.4    13.8   2
   1   8 -13  1030.7    18.8   2
   1   8 -12    26.3    11.7   2
   1   8 -11  1106.9    22.8   2
   1   8 -10    37.7    12.4   2
   1   8  -8     1.2    12.5   2
   1   8  -7  1707.6    30.4   2
   1   8  -6   289.1    11.0   2
   1   8  -5  1412.0    25.4   2
   1   8  -4     9.1     4.0   2
   1   8  -2    16.4     5.6   2
   1   8   0   138.6     4.3   2
   1   8   2  1411.4    25.7   2
   1   8   3   412.3    15.4   2
   1   8   4   362.9    10.0   2
   1   8   5    39.4     4.9   2
   1   8   6   218.9    10.0   2
   1   8   7    64.7     9.0   2
   1   8   8    15.0     9.8   2
   1   8   9    69.1    10.7   2
   1   8  10    10.7    12.0   2
   1   8  11   334.4    12.5   2
   1   8  12   -15.3    11.5   2
   1   8  13  1799.0    24.6   2
   1   8  14   580.3    16.7   2
   1   8  15   269.0    14.1   2
   1   8  16   760.6    18.7   2
   1   8  17   301.1    17.9   2
   1   8  18   -21.2    20.8   2
   1   8  19    30.1    25.4   2
   1   8  20   -51.9    29.1   2
   1   8  21   289.8    43.2   2
   1   8  22   138.0    49.0   2
   1   8  23  -128.9    59.8   2
   1   8  24   676.0    80.6   2
   1   9 -25   -89.9    71.9   2
   1   9 -24   -77.1    57.1   2
   1   9 -23   -36.4    44.8   2
   1   9 -22   132.6    37.8   2
   1   9 -21    37.7    35.4   2
   1   9 -20   -68.6    52.7   2
   1   9 -19    19.7    23.5   2
   1   9 -18   755.9    40.5   2
   1   9 -17   347.9    20.1   2
   1   9 -16   -18.8    15.2   2
   1   9 -15     6.6    13.1   2
   1   9 -14   237.4    14.6   2
   1   9 -13   646.3    15.5   2
   1   9 -12   218.6    12.4   2
   1   9 -11    53.3    10.3   2
   1   9  -9   778.0    20.1   2
   1   9  -8  1654.5    32.9   2
   1   9  -7    84.6     7.6   2
   1   9  -6    21.5     5.9   2
   1   9  -5   957.5    17.9   2
   1   9  -4   697.2    14.3   2
   1   9  -3    47.6     5.2   2
   1   9  -1    56.9     5.4   2
   1   9   1   139.3     5.3   2
   1   9   2    44.8     8.0   2
   1   9   3  2102.7    31.3   2
   1   9   4   109.2    10.2   2
   1   9   5  3244.3    36.0   2
   1   9   6  1166.7    17.9   2
   1   9   7  1357.3    18.8   2
   1   9   8   899.1    17.6   2
   1   9   9    25.1    18.1   2
   1   9  10   514.0    13.5   2
   1   9  11    -1.8    11.2   2
   1   9  12   933.3    18.4   2
   1   9  13   520.1    16.2   2
   1   9  14   836.1    17.7   2
   1   9  15   261.6    15.2   2
   1   9  16    75.3    16.6   2
   1   9  17   783.3    21.6   2
   1   9  18     7.8    28.8   2
   1   9  19    -1.4    25.1   2
   1   9  20   -27.4    30.8   2
   1   9  21   431.6    40.8   2
   1   9  22   338.0    49.2   2
   1   9  23    89.6    60.4   2
   1   9  24   -10.0    95.2   2
   1  10 -24   -18.1    60.7   2
   1  10 -23   505.3    62.2   2
   1  10 -22  -112.6    45.5   2
   1  10 -21   161.3    37.9   2
   1  10 -20   500.4    68.3   2
   1  10 -19    36.7    25.4   2
   1  10 -18   513.0    23.1   2
   1  10 -17    -0.7    17.8   2
   1  10 -16   405.0    17.3   2
   1  10 -15   -14.3    13.9   2
   1  10 -14   332.1    14.5   2
   1  10 -13    74.9    13.5   2
   1  10 -12   437.4    14.5   2
   1  10 -11   687.5    18.2   2
   1  10  -9  1880.6    24.4   2
   1  10  -8    38.1     8.5   2
   1  10  -7    19.9     7.0   2
   1  10  -6  1846.4    28.8   2
   1  10  -5   176.3     8.1   2
   1  10  -4   314.0     9.8   2
   1  10  -3   103.7     9.0   2
   1  10  -2  1324.1    20.6   2
   1  10  -1   210.8    10.7   2
   1  10   1    52.9     5.4   2
   1  10   2    29.8     7.6   2
   1  10   3   482.6    12.9   2
   1  10   4   138.0     7.5   2
   1  10   5   266.9    12.7   2
   1  10   6   974.3    21.9   2
   1  10   7    11.4     7.8   2
   1  10   8   126.0     9.3   2
   1  10  10   953.9    34.7   2
   1  10  11    -0.5    18.3   2
   1  10  12  1683.0    25.6   2
   1  10  13    46.6    12.9   2
   1  10  14   428.2    16.1   2
   1  10  15   131.9    15.3   2
   1  10  16  1985.0    29.5   2
   1  10  17   -57.6    20.5   2
   1  10  18    -2.4    34.4   2
   1  10  19   156.7    33.3   2
   1  10  20   706.8    37.0   2
   1  10  21   -24.2    40.0   2
   1  10  22   -13.4    50.1   2
   1  10  23   427.5    67.0   2
   1  10  24  -147.9    86.5   2
   1  11 -24   336.2    83.2   2
   1  11 -23   154.7    63.9   2
   1  11 -22   585.9    55.8   2
   1  11 -21   237.8    41.1   2
   1  11 -20   214.5    48.4   2
   1  11 -19    81.8    26.9   2
   1  11 -18    28.1    21.9   2
   1  11 -17     1.2    18.4   2
   1  11 -16   -29.2    16.1   2
   1  11 -15   -24.7    14.0   2
   1  11 -14   235.4    14.9   2
   1  11 -13    71.8    12.9   2
   1  11  -9  4200.1    51.0   2
   1  11  -8   677.2    17.6   2
   1  11  -7    39.3     9.3   2
   1  11  -6   100.8    10.2   2
   1  11  -5  1879.8    26.0   2
   1  11  -4   119.2     9.5   2
   1  11  -3    26.1     8.5   2
   1  11  -2  1743.5    31.7   2
   1  11  -1  3394.1    55.1   2
   1  11   1   194.1     7.6   2
   1  11   2   251.0     9.4   2
   1  11   3   463.4    12.9   2
   1  11   5   549.4    13.3   2
   1  11   6  1075.7    19.4   2
   1  11   7  3006.3    39.3   2
   1  11   8     6.8    10.9   2
   1  11   9   372.7    13.9   2
   1  11  12   443.9    15.7   2
   1  11  13   183.5    15.7   2
   1  11  14  1933.1    24.7   2
   1  11  15   924.9    20.4   2
   1  11  16   -39.5    18.4   2
   1  11  17   -39.7    22.1   2
   1  11  18    70.9    26.4   2
   1  11  19    66.4    32.1   2
   1  11  20  1622.3    51.5   2
   1  11  21   127.9    42.8   2
   1  11  22   705.7    68.5   2
   1  11  23    40.9    67.9   2
   1  12 -24    76.1    99.2   2
   1  12 -23   439.8    71.0   2
   1  12 -22   771.2    59.0   2
   1  12 -21   335.5    44.8   2
   1  12 -20   455.2    38.4   2
   1  12 -19    96.8    28.9   2
   1  12 -18   -64.3    23.5   2
   1  12 -17   898.5    25.1   2
   1  12 -16  1445.8    23.8   2
   1  12 -15   363.6    19.5   2
   1  12 -14    19.5    14.5   2
   1  12 -13   364.0    27.2   2
   1  12 -11  1183.9    33.5   2
   1  12 -10   359.0    12.8   2
   1  12  -9   388.0    12.0   2
   1  12  -8  2132.6    28.3   2
   1  12  -7  1912.8    26.6   2
   1  12  -6  1064.5    21.0   2
   1  12  -5   726.6    17.0   2
   1  12  -4   216.3     9.9   2
   1  12  -3  1366.2    22.9   2
   1  12  -2   780.6    21.2   2
   1  12  -1   826.1    16.8   2
   1  12   1    29.4     6.4   2
   1  12   2     8.3     8.8   2
   1  12   3   381.9    11.0   2
   1  12   4   617.8    15.9   2
   1  12   5   406.6    12.8   2
   1  12   6    -4.0     9.1   2
   1  12   7    -2.3     9.6   2
   1  12   8   246.3    11.6   2
   1  12   9   270.8    12.5   2
   1  12  10    46.6    11.5   2
   1  12  13   564.7    23.9   2
   1  12  14   123.5    15.9   2
   1  12  15   425.8    16.6   2
   1  12  16   -72.6    19.1   2
   1  12  17  1222.6    29.6   2
   1  12  18   -76.9    28.5   2
   1  12  19   329.6    36.1   2
   1  12  20    36.8    43.5   2
   1  12  21   -87.7    54.5   2
   1  12  22   694.7   107.9   2
   1  12  23   251.5    90.3   2
   1  13 -24   576.0   121.9   2
   1  13 -23   -51.7    76.3   2
   1  13 -22   -51.4    59.5   2
   1  13 -21   114.6    47.1   2
   1  13 -20   -65.9    37.5   2
   1  13 -19  1448.4    40.9   2
   1  13 -18   -49.7    25.2   2
   1  13 -17   -15.0    17.6   2
   1  13 -16  2416.8    38.7   2
   1  13 -15     2.6    14.8   2
   1  13 -13    36.1    16.2   2
   1  13 -11  1370.5    21.1   2
   1  13 -10   158.4    12.9   2
   1  13  -9     1.0    10.8   2
   1  13  -8   646.0    16.7   2
   1  13  -7    51.0    10.2   2
   1  13  -6    -4.2    10.2   2
   1  13  -5    58.6     9.5   2
   1  13  -4   565.6    13.3   2
   1  13  -3   142.2     9.0   2
   1  13  -2    16.0     6.8   2
   1  13  -1   227.5    11.3   2
   1  13   1   322.1     9.2   2
   1  13   2   180.2     8.1   2
   1  13   3    -2.8     8.5   2
   1  13   4    93.4     9.3   2
   1  13   5   863.6    17.4   2
   1  13   6  1496.6    29.2   2
   1  13   7   390.9    15.0   2
   1  13   8    87.5    11.3   2
   1  13   9    -6.6    12.1   2
   1  13  10  1809.4    25.8   2
   1  13  11    25.9    13.7   2
   1  13  13    58.7    15.1   2
   1  13  15   468.0    18.3   2
   1  13  16   116.4    17.6   2
   1  13  17    67.2    23.6   2
   1  13  18   520.6    30.3   2
   1  13  19   242.7    38.1   2
   1  13  20   -31.1    46.9   2
   1  13  21   -51.1    59.3   2
   1  13  22    56.0    76.0   2
   1  13  23   106.9    96.9   2
   1  14 -24  -130.7   106.9   2
   1  14 -23   759.9    87.4   2
   1  14 -22   221.7    65.6   2
   1  14 -21   735.4    55.1   2
   1  14 -20   813.1    46.1   2
   1  14 -19    87.0    28.6   2
   1  14 -18   -36.2    21.9   2
   1  14 -17   889.3    37.1   2
   1  14 -16     4.7    17.9   2
   1  14 -14   272.0    20.9   2
   1  14 -12    31.4    14.6   2
   1  14 -11   612.6    17.7   2
   1  14 -10     9.5    13.6   2
   1  14  -9  2062.5    29.3   2
   1  14  -8   559.2    19.0   2
   1  14  -7   123.6    11.2   2
   1  14  -6   106.0    10.5   2
   1  14  -5  1673.2    27.5   2
   1  14  -4   991.8    19.0   2
   1  14  -3   339.9    12.1   2
   1  14  -2    -0.4     7.5   2
   1  14   1   372.2    11.7   2
   1  14   2   152.8     8.9   2
   1  14   3   104.1     8.6   2
   1  14   4    89.3     9.8   2
   1  14   5  1196.1    21.1   2
   1  14   6   374.1    14.0   2
   1  14   7   158.5    13.3   2
   1  14   8   291.0    13.1   2
   1  14   9    -1.5    11.3   2
   1  14  10   201.2    13.5   2
   1  14  11    59.5    12.6   2
   1  14  12   119.9    13.9   2
   1  14  13    56.6    14.6   2
   1  14  16    -3.7    23.1   2
   1  14  17   -24.7    22.1   2
   1  14  18   -90.5    30.5   2
   1  14  19   853.6    41.0   2
   1  14  20    27.2    44.2   2
   1  14  21  1272.6    72.7   2
   1  14  22   155.2    81.8   2
   1  14  23   247.4   107.5   2
   1  15 -23   -39.8    89.7   2
   1  15 -22   -11.9    77.7   2
   1  15 -21   -99.6    55.4   2
   1  15 -20   108.4    34.5   2
   1  15 -19   185.9    28.8   2
   1  15 -18   580.9    58.7   2
   1  15 -17   113.7    32.0   2
   1  15 -14   888.5    23.9   2
   1  15 -13   229.8    15.9   2
   1  15 -12   -19.8    14.1   2
   1  15 -11    10.7    12.9   2
   1  15 -10   992.1    20.4   2
   1  15  -9   143.2    12.3   2
   1  15  -7   425.1    14.4   2
   1  15  -6   275.9    12.7   2
   1  15  -5  3453.2    46.8   2
   1  15  -4    21.8    10.2   2
   1  15  -3   159.6     9.5   2
   1  15  -2   260.1    10.4   2
   1  15   1   123.5    11.5   2
   1  15   2   639.6    13.7   2
   1  15   3   618.3    13.7   2
   1  15   4   270.6    10.5   2
   1  15   5   206.4    11.8   2
   1  15   6   294.2    12.7   2
   1  15   7    24.4    11.4   2
   1  15   8    11.1    12.0   2
   1  15   9   103.3    12.0   2
   1  15  10    -5.7    12.8   2
   1  15  11  1782.7    22.9   2
   1  15  12  1934.0    25.9   2
   1  15  13    85.3    19.8   2
   1  15  14   274.8    19.0   2
   1  15  15  1076.8    37.3   2
   1  15  16    13.3    33.0   2
   1  15  17   655.6    29.3   2
   1  15  18   -90.4    30.5   2
   1  15  19   -29.4    33.8   2
   1  15  20  1076.9    57.4   2
   1  15  21   594.9    62.4   2
   1  15  22   122.9    89.9   2
   1  16 -23   -77.0    98.0   2
   1  16 -22  -149.3    75.9   2
   1  16 -21   -73.9    43.7   2
   1  16 -20    90.5    37.1   2
   1  16 -19   334.5    32.7   2
   1  16 -18   888.6    33.4   2
   1  16 -15   158.6    44.8   2
   1  16 -14  1026.4    22.6   2
   1  16 -13    -2.1    13.5   2
   1  16 -12    43.1    14.3   2
   1  16 -11   394.2    16.2   2
   1  16 -10  1612.6    26.2   2
   1  16  -9   386.6    15.2   2
   1  16  -8   127.2    13.0   2
   1  16  -7   461.5    15.6   2
   1  16  -6  2075.4    34.5   2
   1  16  -5    45.2    11.5   2
   1  16  -4    34.9     9.8   2
   1  16  -3    45.9     9.8   2
   1  16  -2     9.9    11.0   2
   1  16  -1     6.5    17.3   2
   1  16   1  1511.3    34.1   2
   1  16   2  2271.6    27.3   2
   1  16   3   136.8    10.2   2
   1  16   4   410.2    12.5   2
   1  16   5  1040.0    18.4   2
   1  16   6   490.3    12.9   2
   1  16   7    -4.2    11.0   2
   1  16   8   723.9    17.3   2
   1  16   9    42.8    12.0   2
   1  16  10   483.8    14.5   2
   1  16  11   181.6    12.6   2
   1  16  12  1172.0    20.6   2
   1  16  13    46.3    17.2   2
   1  16  14   711.3    72.7   2
   1  16  15    83.3    35.4   2
   1  16  17    87.7    36.9   2
   1  16  18   154.6    43.7   2
   1  16  19   433.2    73.1   2
   1  16  20  1408.0    53.6   2
   1  16  21   395.7    67.8   2
   1  16  22   -56.5    82.8   2
   1  17 -23  1136.6    90.8   2
   1  17 -22   287.0    60.3   2
   1  17 -21   -18.6    48.8   2
   1  17 -20   226.1    40.6   2
   1  17 -19   383.6    61.2   2
   1  17 -16     1.1    25.8   2
   1  17 -15    77.6   165.3   2
   1  17 -14   996.0    21.4   2
   1  17 -13   -15.9    13.5   2
   1  17 -12    53.5    12.3   2
   1  17 -11   273.0    14.1   2
   1  17 -10    32.0    12.4   2
   1  17  -9  2870.4    41.2   2
   1  17  -8   550.1    16.8   2
   1  17  -7   104.4    11.8   2
   1  17  -6   465.5    13.4   2
   1  17  -5  2989.5    32.8   2
   1  17  -4     3.4     9.9   2
   1  17  -3  1396.2    22.6   2
   1  17  -2    47.1    10.7   2
   1  17  -1   311.8    21.6   2
   1  17   1   972.9    24.8   2
   1  17   2    51.7    11.3   2
   1  17   3   629.7    14.3   2
   1  17   4  2339.5    28.7   2
   1  17   5    57.9    10.5   2
   1  17   6   111.3    11.6   2
   1  17   7  3663.4    39.0   2
   1  17   8     2.0    11.6   2
   1  17   9   151.5    12.8   2
   1  17  10   237.7    13.0   2
   1  17  11    77.1    12.6   2
   1  17  12    56.7    13.1   2
   1  17  13  1341.5    22.6   2
   1  17  14   364.6    20.5   2
   1  17  15  3106.8    85.7   2
   1  17  18  1225.1    55.7   2
   1  17  19   103.6    44.0   2
   1  17  20  2740.7    80.3   2
   1  17  21   110.7    67.5   2
   1  17  22   601.2    94.1   2
   1  18 -22   277.4    67.7   2
   1  18 -21    24.1    52.3   2
   1  18 -20    98.6    72.2   2
   1  18 -17     6.9    37.1   2
   1  18 -16  1348.8    81.9   2
   1  18 -15   609.4    22.4   2
   1  18 -14   124.4    15.9   2
   1  18 -13    62.2    14.4   2
   1  18 -12   249.7    15.2   2
   1  18 -11   139.9    14.2   2
   1  18 -10   130.8    12.8   2
   1  18  -9   104.7    16.3   2
   1  18  -8  2619.2    31.1   2
   1  18  -7     7.3    12.1   2
   1  18  -6   774.3    16.1   2
   1  18  -5    91.2    11.6   2
   1  18  -4   317.1    13.6   2
   1  18  -3    79.5    11.2   2
   1  18  -2  1983.7    26.0   2
   1  18  -1  1058.0    33.0   2
   1  18   1     0.6    17.3   2
   1  18   2    26.0    12.0   2
   1  18   3   281.4    12.4   2
   1  18   4    13.8    11.4   2
   1  18   5    70.1    11.1   2
   1  18   6  2113.3    25.3   2
   1  18   7   715.3    16.3   2
   1  18   8  1023.0    17.8   2
   1  18   9   121.8    15.7   2
   1  18  10    30.6    13.4   2
   1  18  11    20.7    13.1   2
   1  18  12   151.1    14.8   2
   1  18  13   920.8    20.9   2
   1  18  14   -55.1    17.1   2
   1  18  15   -35.4    24.0   2
   1  18  20    75.3    58.3   2
   1  19 -22   -92.5    73.0   2
   1  19 -21    45.9    76.7   2
   1  19 -16   286.9    29.1   2
   1  19 -15   199.0    21.1   2
   1  19 -14    76.4    17.2   2
   1  19 -13  1586.1    26.9   2
   1  19 -12   180.8    16.0   2
   1  19 -11    59.8    14.5   2
   1  19 -10   106.6    20.4   2
   1  19  -9   338.8    15.3   2
   1  19  -8    40.1    12.8   2
   1  19  -7    12.5    12.6   2
   1  19  -6   525.4    15.6   2
   1  19  -5  2116.1    28.1   2
   1  19  -4  1421.0    21.8   2
   1  19  -3    85.6    12.8   2
   1  19  -2   108.4    13.3   2
   1  19   1    95.9    17.1   2
   1  19   2  1496.3    21.9   2
   1  19   3   279.6    13.4   2
   1  19   4    44.6    12.2   2
   1  19   5    -1.3    11.8   2
   1  19   6    89.8    13.5   2
   1  19   7    38.4    12.2   2
   1  19   8   844.9    16.9   2
   1  19   9    96.2    13.5   2
   1  19  10   195.5    13.8   2
   1  19  11   113.3    14.5   2
   1  19  12   319.9    17.0   2
   1  19  13   621.7    19.8   2
   1  19  14    15.6    19.5   2
   1  19  15   216.1    22.8   2
   1  19  16   -38.2    30.5   2
   1  19  21    50.8    81.4   2
   1  20 -17   -34.9    34.5   2
   1  20 -16     7.4    25.6   2
   1  20 -15   191.6    22.5   2
   1  20 -14   -43.7    18.6   2
   1  20 -13  1384.6    27.2   2
   1  20 -12    76.7    17.3   2
   1  20 -11    98.9    16.5   2
   1  20 -10   849.1    18.4   2
   1  20  -9  1037.5    18.5   2
   1  20  -8   186.8    13.2   2
   1  20  -7   -39.5    12.9   2
   1  20  -6    -6.4    12.7   2
   1  20  -5  1965.3    24.6   2
   1  20  -4    -1.7    12.5   2
   1  20  -3  3087.3    34.6   2
   1  20  -2   379.6    14.2   2
   1  20   1  1318.0    31.0   2
   1  20   2     1.1    12.9   2
   1  20   3  1244.9    21.1   2
   1  20   4   433.5    14.3   2
   1  20   5   387.4    14.8   2
   1  20   6    38.8    13.2   2
   1  20   7   203.1    13.9   2
   1  20   8    90.0    14.4   2
   1  20   9    -8.2    14.5   2
   1  20  10   190.7    15.1   2
   1  20  11  1744.5    30.8   2
   1  20  12   170.8    17.8   2
   1  20  13   175.1    20.4   2
   1  20  14   105.5    21.0   2
   1  20  15    74.7    24.5   2
   1  20  16  1138.0    42.1   2
   1  20  17   556.1    49.6   2
   1  21 -19   228.3    74.3   2
   1  21 -18   -57.9    46.3   2
   1  21 -17   329.5    35.0   2
   1  21 -16   288.4    27.9   2
   1  21 -15   540.4    25.8   2
   1  21 -14   444.0    24.7   2
   1  21 -13   -47.0    21.8   2
   1  21 -12   215.3    20.0   2
   1  21 -11     7.6    18.8   2
   1  21 -10   182.4    14.9   2
   1  21  -9   604.9    16.5   2
   1  21  -8   323.7    14.8   2
   1  21  -7   555.6    16.1   2
   1  21  -6  5116.6    45.4   2
   1  21  -5    46.7    14.1   2
   1  21  -4  1222.3    23.0   2
   1  21  -3   868.7    18.0   2
   1  21  -2    69.5    13.5   2
   1  21   1  1005.8    23.8   2
   1  21   2   183.8    15.0   2
   1  21   3   138.8    14.2   2
   1  21   4   650.1    17.2   2
   1  21   5    -1.8    14.6   2
   1  21   6     1.5    14.0   2
   1  21   7    60.6    14.6   2
   1  21   8    18.6    14.8   2
   1  21   9   319.4    15.5   2
   1  21  10   323.4    17.2   2
   1  21  11     8.8    17.3   2
   1  21  12  1015.9    27.8   2
   1  21  13   -49.6    21.5   2
   1  21  14   126.4    27.4   2
   1  21  15   403.9    28.7   2
   1  21  16   -11.8    30.4   2
   1  21  17   -21.6    53.8   2
   1  21  18    75.4    65.0   2
   1  22 -20   199.5    91.0   2
   1  22 -19  -116.8    62.6   2
   1  22 -18    84.2    46.4   2
   1  22 -17   -40.9    33.9   2
   1  22 -16   380.1    31.5   2
   1  22 -15   494.5    34.3   2
   1  22 -14    60.1    26.2   2
   1  22 -13    42.7    24.0   2
   1  22 -12   518.1    22.4   2
   1  22 -11   435.4    29.8   2
   1  22 -10   443.4    17.8   2
   1  22  -9   212.4    16.4   2
   1  22  -8   -18.4    14.8   2
   1  22  -7   411.9    16.0   2
   1  22  -6    -2.4    12.7   2
   1  22  -5   311.9    14.4   2
   1  22  -4    72.6    13.9   2
   1  22  -3   504.2    17.1   2
   1  22  -2   151.9    40.8   2
   1  22   1   111.1    22.2   2
   1  22   2   713.4    18.1   2
   1  22   3    85.3    13.9   2
   1  22   4   -25.3    14.9   2
   1  22   5   100.1    16.4   2
   1  22   6   130.4    15.2   2
   1  22   7  2099.5    30.3   2
   1  22   8    -0.2    16.8   2
   1  22   9   -33.4    15.7   2
   1  22  10   204.4    17.8   2
   1  22  11   190.2    31.4   2
   1  22  12  1616.2    42.4   2
   1  22  13   208.8    24.9   2
   1  22  14   124.8    28.0   2
   1  22  15    86.0    29.7   2
   1  22  16  2621.8    54.5   2
   1  22  17   229.4    41.1   2
   1  22  18    15.3    61.1   2
   1  22  19  -106.2    90.4   2
   1  23 -20   671.2    91.7   2
   1  23 -19  1083.9    64.8   2
   1  23 -18   -23.0    45.0   2
   1  23 -17   -70.7    38.8   2
   1  23 -16   136.1    33.7   2
   1  23 -15  1129.5    39.4   2
   1  23 -14  2008.8    46.2   2
   1  23 -13   187.7    29.0   2
   1  23 -12   431.9    24.8   2
   1  23 -11    41.7    18.6   2
   1  23 -10   940.6    22.7   2
   1  23  -9   -28.2    17.4   2
   1  23  -8   234.8    18.4   2
   1  23  -7   724.7    19.6   2
   1  23  -6  2587.5    28.9   2
   1  23  -5   516.7    17.2   2
   1  23  -4   -10.2    14.0   2
   1  23  -3   -55.1    14.4   2
   1  23  -2  1238.3    22.6   2
   1  23   1   122.2    16.3   2
   1  23   2   -20.9    14.8   2
   1  23   3   268.4    16.6   2
   1  23   4    50.3    15.8   2
   1  23   5   233.4    16.3   2
   1  23   6   768.2    21.6   2
   1  23   7    90.6    18.6   2
   1  23   8    -6.0    19.2   2
   1  23   9   305.2    19.1   2
   1  23  10  1166.1    26.1   2
   1  23  11   122.1    24.5   2
   1  23  12   348.5    26.2   2
   1  23  13   -25.1    32.2   2
   1  23  14   163.2    36.3   2
   1  23  15   310.7    37.9   2
   1  23  16  1031.1    44.9   2
   1  23  17   -66.7    48.8   2
   1  23  18   -41.7    52.1   2
   1  23  19    97.2    86.6   2
   1  24 -19    27.6    67.4   2
   1  24 -18    40.1    51.2   2
   1  24 -17   -78.4    43.8   2
   1  24 -16   362.7    43.9   2
   1  24 -15   232.2    41.6   2
   1  24 -14   216.7    35.9   2
   1  24 -13   152.3    46.8   2
   1  24 -12   192.1    36.1   2
   1  24 -11    50.5    21.6   2
   1  24 -10    63.1    21.6   2
   1  24  -9   425.7    21.9   2
   1  24  -8   -51.8    20.4   2
   1  24  -7   -41.7    17.4   2
   1  24  -6   379.8    17.1   2
   1  24  -5   739.3    20.4   2
   1  24  -4   403.9    17.4   2
   1  24  -3   362.5    17.0   2
   1  24   1   -16.4    15.4   2
   1  24   2   126.9    17.0   2
   1  24   3    83.0    17.3   2
   1  24   4   938.2    23.8   2
   1  24   5   -24.0    17.3   2
   1  24   6    43.6    16.6   2
   1  24   7   630.0    24.2   2
   1  24   8    35.3    22.0   2
   1  24   9    13.5    23.4   2
   1  24  10   -24.0    21.5   2
   1  24  11   233.2    24.5   2
   1  24  12  1046.5    51.7   2
   1  24  13   286.8    41.9   2
   1  24  14   -98.5    41.5   2
   1  24  15  1201.6    49.0   2
   1  24  16  1640.4    59.2   2
   1  24  17   135.8    52.9   2
   1  24  18   403.8    63.8   2
   1  24  19   416.8    72.4   2
   1  25 -19   753.9    73.1   2
   1  25 -18    26.1    59.9   2
   1  25 -17   -55.3    49.9   2
   1  25 -16   -78.9    49.3   2
   1  25 -15  -101.3    46.9   2
   1  25 -14    62.5    36.3   2
   1  25 -13   235.1    46.7   2
   1  25 -12   170.4    26.9   2
   1  25 -11    38.0    24.9   2
   1  25 -10   155.2    25.2   2
   1  25  -9   821.1    27.2   2
   1  25  -8  1215.5    29.2   2
   1  25  -7   552.5    20.7   2
   1  25  -6    -3.3    17.1   2
   1  25  -5    48.9    18.3   2
   1  25  -4   153.7    16.7   2
   1  25  -3   394.2    17.6   2
   1  25  -2   129.0    18.2   2
   1  25   1    -3.6    17.3   2
   1  25   2   963.6    21.5   2
   1  25   3   560.7    21.7   2
   1  25   4   -36.4    19.9   2
   1  25   5   685.2    23.7   2
   1  25   6   500.7    21.0   2
   1  25   7   -57.7    23.6   2
   1  25   8   350.5    39.8   2
   1  25   9    -1.0    27.9   2
   1  25  10   525.4    28.1   2
   1  25  11   140.3    39.0   2
   1  25  12   328.0    36.3   2
   1  25  14   723.6    52.4   2
   1  25  15    -6.8    55.4   2
   1  25  16   -12.0    56.2   2
   1  25  17   361.9    60.7   2
   1  25  18  -217.3    71.3   2
   1  26 -18   -75.8    68.3   2
   1  26 -17    85.3    66.1   2
   1  26 -16   -57.7    64.6   2
   1  26 -15   841.1    60.8   2
   1  26 -14   504.9    49.1   2
   1  26 -13   186.3    41.0   2
   1  26 -12   -50.1    30.7   2
   1  26 -11   -54.9    27.6   2
   1  26 -10   101.2    29.0   2
   1  26  -9   129.3    39.4   2
   1  26  -8   -70.5    24.2   2
   1  26  -7    -5.2    20.5   2
   1  26  -6   186.6    20.0   2
   1  26  -5    82.8    21.0   2
   1  26  -4   509.2    22.2   2
   1  26  -3   112.1    17.4   2
   1  26  -2   189.7    21.4   2
   1  26   1   150.6    23.1   2
   1  26   2   272.9    21.0   2
   1  26   3   -22.8    19.1   2
   1  26   4   100.6    23.2   2
   1  26   5  3566.7    45.3   2
   1  26   6  3143.0    45.3   2
   1  26   7    34.1    24.1   2
   1  26   8   185.5    30.3   2
   1  26   9    16.0    31.8   2
   1  26  10     8.1    28.0   2
   1  26  11   679.4    34.5   2
   1  26  12   115.0    34.4   2
   1  26  14   539.6    51.3   2
   1  26  15  1025.9    71.0   2
   1  26  16   157.9    65.5   2
   1  26  17   -14.7    77.2   2
   1  27 -17   631.1    91.9   2
   1  27 -16  1607.6    87.2   2
   1  27 -15    40.5    56.4   2
   1  27 -14   816.1    72.4   2
   1  27 -13   148.0    39.4   2
   1  27 -12   167.3    35.9   2
   1  27 -11   786.5    40.7   2
   1  27 -10   -69.1    32.5   2
   1  27  -9  1008.6    35.9   2
   1  27  -8  1151.8    35.6   2
   1  27  -7   -16.4    24.2   2
   1  27  -6    -6.5    25.2   2
   1  27  -5   677.2    27.5   2
   1  27  -4   -40.4    22.0   2
   1  27  -3   -10.7    22.3   2
   1  27  -2   681.2    23.0   2
   1  27   1   546.5    29.6   2
   1  27   2   118.1    20.2   2
   1  27   3   346.3    27.2   2
   1  27   4    -4.1    26.4   2
   1  27   5   483.0    27.3   2
   1  27   6   130.4    24.2   2
   1  27   7    23.5    25.0   2
   1  27   8   684.7    38.7   2
   1  27   9    20.7    38.2   2
   1  27  10   403.6    38.0   2
   1  27  11    68.5    36.1   2
   1  27  12   193.4    41.7   2
   1  27  13   106.8    53.9   2
   1  27  14  2667.7    80.8   2
   1  27  15  -267.7    77.6   2
   1  27  16  -164.9    88.3   2
   1  27  17   694.2   104.0   2
   1  28 -17   267.6   104.3   2
   1  28 -16   -11.4    90.1   2
   1  28 -15  1482.2    76.1   2
   1  28 -14   523.4    61.8   2
   1  28 -13   441.8    47.0   2
   1  28 -12   660.6    44.4   2
   1  28 -11   -11.7    42.3   2
   1  28 -10   -31.6    52.3   2
   1  28  -9   -40.3    37.4   2
   1  28  -8  1326.4    41.6   2
   1  28  -7   125.4    27.2   2
   1  28  -6   -92.0    28.2   2
   1  28  -5   233.0    27.7   2
   1  28  -4   381.7    27.4   2
   1  28  -3  1007.4    28.9   2
   1  28  -2   384.7    29.1   2
   1  28   2    33.9    22.6   2
   1  28   3  1992.1    41.4   2
   1  28   4   176.5    31.3   2
   1  28   5  1423.3    39.7   2
   1  28   6    35.3    27.7   2
   1  28   7   121.9    29.5   2
   1  28   8   -15.0    34.9   2
   1  28   9   -38.3    44.3   2
   1  28  10    -3.8    49.1   2
   1  28  11    64.7    41.2   2
   1  28  12    28.7    45.9   2
   1  28  13   122.9    55.0   2
   1  28  15   607.6    79.7   2
   1  28  16  -145.2   109.9   2
   1  29 -16  -211.2    90.0   2
   1  29 -14   547.1    61.9   2
   1  29 -13   -32.7    53.6   2
   1  29 -12   277.8    55.4   2
   1  29 -11    53.5    49.4   2
   1  29 -10  1302.7    60.2   2
   1  29  -9    39.0    40.2   2
   1  29  -8    56.0    35.6   2
   1  29  -7    28.2    31.2   2
   1  29  -6   446.0    35.5   2
   1  29  -5    71.2    31.2   2
   1  29  -4   225.7    30.1   2
   1  29  -3    39.9    42.3   2
   1  29  -2   693.2    29.7   2
   1  29   2    72.9    33.8   2
   1  29   3    79.9    35.1   2
   1  29   4    -3.2    35.9   2
   1  29   5  -104.4    37.2   2
   1  29   6    51.6    34.7   2
   1  29   7   -23.9    33.1   2
   1  29   8   -35.9    41.2   2
   1  29   9   167.1    53.6   2
   1  29  10   423.7    61.1   2
   1  29  11   -99.4    54.2   2
   1  29  12   -57.8    54.2   2
   1  29  13  1205.7    68.7   2
   1  29  14  -123.9    83.7   2
   1  30 -15   320.1   118.6   2
   1  30 -14   605.8    73.8   2
   1  30 -13   764.6    67.8   2
   1  30 -12   425.6    67.1   2
   1  30 -11   670.0    62.4   2
   1  30 -10  1120.2    58.3   2
   1  30  -9   136.8    47.6   2
   1  30  -8     5.4    38.2   2
   1  30  -7   215.5    36.4   2
   1  30  -6   211.4    39.5   2
   1  30  -5   -51.7    35.3   2
   1  30  -4   -52.2    34.7   2
   1  30  -3   193.6    30.5   2
   1  30  -2   111.6    35.7   2
   1  30   2  1235.4    38.7   2
   1  30   3   -35.6    37.6   2
   1  30   4   -11.1    35.7   2
   1  30   5   394.1    46.2   2
   1  30   6   -92.3    41.9   2
   1  30   7    63.1    42.5   2
   1  30   8   867.7    53.5   2
   1  30   9   -72.8    58.9   2
   1  30  10   180.8    72.6   2
   1  30  11    38.8    64.2   2
   1  30  12    23.2    64.5   2
   1  30  13    25.5    73.4   2
   1  30  14   695.8    84.4   2
   1  31 -14   224.2    86.1   2
   1  31 -13  -232.5    74.2   2
   1  31 -12   193.9    78.4   2
   1  31 -11   -31.3    83.7   2
   1  31 -10    -1.7    61.4   2
   1  31  -9  -181.8    56.2   2
   1  31  -8    54.4    44.9   2
   1  31  -7    16.5    41.3   2
   1  31  -6   -70.1    45.3   2
   1  31  -5    70.0    41.8   2
   1  31  -4     9.1    40.9   2
   1  31  -3   256.6    35.7   2
   1  31  -2   -50.6    44.3   2
   1  31   2   354.8    55.5   2
   1  31   3  1195.7    49.8   2
   1  31   4   594.4    46.5   2
   1  31   5  -103.6    52.8   2
   1  31   6   -81.3    50.9   2
   1  31   7    85.2    45.5   2
   1  31   8  -122.6    47.7   2
   1  31   9   551.6    67.0   2
   1  31  10   -19.5    66.5   2
   1  31  11    23.6    73.6   2
   1  31  12   -17.4    74.9   2
   1  31  13   -10.4    85.7   2
   1  32 -13  2046.8   119.8   2
   1  32 -12   265.4    90.9   2
   1  32 -11   440.6   123.0   2
   1  32 -10   399.5    74.6   2
   1  32  -9  1960.6    82.2   2
   1  32  -8    55.4    52.8   2
   1  32  -7   -53.4    56.9   2
   1  32  -6  -149.0    53.4   2
   1  32  -5  -141.3    49.4   2
   1  32  -4    83.7    48.5   2
   1  32  -3   -19.0    40.9   2
   1  32  -2    -3.3    45.8   2
   1  32   2   259.6    43.5   2
   1  32   3    24.8    49.2   2
   1  32   4   212.4    51.8   2
   1  32   5   127.8    62.2   2
   1  32   6  1192.0    64.2   2
   1  32   7    -2.0    53.2   2
   1  32   8  -105.6    58.4   2
   1  32   9   150.3    75.7   2
   1  32  10   542.5    86.3   2
   1  32  11   200.1   116.9   2
   1  32  12    54.3   104.2   2
   1  33 -12   118.7   111.9   2
   1  33 -11   381.1   123.1   2
   1  33 -10    61.3    87.4   2
   1  33  -9  2171.1    84.6   2
   1  33  -8   264.3    63.8   2
   1  33  -7    61.9    69.3   2
   1  33  -6    50.2    64.3   2
   1  33  -5    81.8    59.1   2
   1  33  -4   299.8    58.5   2
   1  33  -3    -4.1    47.4   2
   1  33  -2   -22.0    55.4   2
   1  33   2   163.4    49.0   2
   1  33   3   -39.6    58.2   2
   1  33   4   199.2    60.8   2
   1  33   5    82.8    61.4   2
   1  33   6   635.0    73.2   2
   1  33   7   628.6    67.2   2
   1  33   8    58.7    69.9   2
   1  33   9  -146.1    90.7   2
   1  33  10   525.1   101.2   2
   1  33  11   113.0   107.7   2
   1  34 -10  -129.8   104.1   2
   1  34  -9   -77.6    81.9   2
   1  34  -8   332.7    76.0   2
   1  34  -7   387.4    85.0   2
   1  34  -6  -168.8    75.1   2
   1  34  -5    83.9    71.4   2
   1  34  -4   242.4    59.0   2
   1  34  -3    12.9    57.1   2
   1  34  -2    81.6    65.9   2
   1  34   2   -55.6    56.8   2
   1  34   3   -48.9    58.2   2
   1  34   4   118.0    73.1   2
   1  34   5  -156.7    76.1   2
   1  34   6   156.7    82.2   2
   1  34   7  -187.2    74.7   2
   1  34   8   171.7    81.6   2
   1  34   9   191.6   105.3   2
   1  34  10   414.3   122.6   2
   1  35  -9   518.8   100.3   2
   1  35  -8   233.8    90.3   2
   1  35  -7  -174.6    98.1   2
   1  35  -6  1310.8   100.1   2
   1  35  -5   312.1    84.4   2
   1  35  -4   110.6    70.0   2
   1  35  -3   128.9    68.4   2
   1  35  -2   -58.9   128.1   2
   1  35   2   -29.4    68.6   2
   1  35   3    90.5    71.6   2
   1  35   4    45.4    87.1   2
   1  35   5   308.0    91.4   2
   1  35   6    74.3   120.9   2
   1  35   7   148.4    92.4   2
   1  35   8    88.8   100.0   2
   1  36  -7   -40.3   130.2   2
   1  36  -6    -7.7   109.5   2
   1  36  -5   543.8   106.7   2
   1  36  -4   -11.7    82.1   2
   1  36  -3   144.5    83.2   2
   1  36  -2   114.0   106.7   2
   1  36   2   -55.9    81.9   2
   1  36   3    34.0    82.2   2
   1  36   4    19.3   105.8   2
   1  36   5    66.4   111.6   2
   1  36   6  -144.5   152.5   2
   1  37  -3    57.4    98.4   2
   1  37  -2   109.1   131.8   2
   1  37   2    42.9   100.3   2
   2   0 -21    42.3    41.9   2
   2   0 -19    24.1    34.3   2
   2   0   9    34.0    12.1   2
   2   1 -26   380.2    69.4   2
   2   1 -25    35.5    86.3   2
   2   1 -24   690.6    53.0   2
   2   1 -23  1469.4    45.7   2
   2   1 -22   873.0    34.6   2
   2   1 -20   619.8    23.1   2
   2   1 -19   -36.1    33.7   2
   2   1 -18   263.3    16.4   2
   2   1 -17    64.6    18.9   2
   2   1 -16  3561.5    40.7   2
   2   1 -15   467.2    23.3   2
   2   1 -14     2.0    13.7   2
   2   1 -13   110.5    12.8   2
   2   1 -12  2054.3    31.5   2
   2   1 -11   133.0    10.4   2
   2   1 -10   866.8    19.4   2
   2   1  -9  2483.9    41.5   2
   2   1  -8    62.7     8.6   2
   2   1  -7   249.6    11.6   2
   2   1  -6     5.4     3.6   2
   2   1  -1   255.0     5.6   2
   2   1   0    23.9     1.0   2
   2   1   6    59.4     7.9   2
   2   1   7   330.1    11.9   2
   2   1   8    12.1     7.6   2
   2   1   9     3.6     9.4   2
   2   1  10   181.5    11.1   2
   2   1  11   183.8    11.9   2
   2   1  12   139.7    12.8   2
   2   1  13   108.6    13.1   2
   2   1  14  2136.1    29.2   2
   2   1  15   247.0    14.7   2
   2   1  16   485.1    15.4   2
   2   1  17    92.5    15.7   2
   2   1  18   197.2    18.0   2
   2   1  19   483.3    23.2   2
   2   1  20    62.0    33.8   2
   2   1  21   537.9    34.0   2
   2   1  22   433.6    42.0   2
   2   1  23    90.9    50.9   2
   2   1  24   -36.9    66.5   2
   2   2 -19   913.9    24.6   2
   2   2 -17    15.7    16.0   2
   2   2 -15    45.8    17.6   2
   2   2 -13    38.5    13.6   2
   2   2 -11   522.3    19.4   2
   2   2  -1   111.7     2.5   2
   2   2   7   956.2    17.6   2
   2   2   9   215.4    11.0   2
   2   2  11  1363.7    22.5   2
   2   2  13   780.2    25.0   2
   2   2  15  1318.4    46.3   2
   2   2  17    47.7    15.3   2
   2   2  19    80.2    22.5   2
   2   3 -26    -5.9    90.7   2
   2   3 -25   468.1    70.7   2
   2   3 -24  -182.3   137.2   2
   2   3 -23  1346.7    49.6   2
   2   3 -22   432.4    65.4   2
   2   3 -21   231.4    28.2   2
   2   3 -20   326.9    26.0   2
   2   3 -19  1789.1    30.2   2
   2   3 -18    42.5    17.0   2
   2   3 -17  2722.3    29.9   2
   2   3 -16     4.1    16.5   2
   2   3 -15    37.9    14.2   2
   2   3 -14   348.0    16.0   2
   2   3 -13   227.3    15.1   2
   2   3 -12    29.4    12.1   2
   2   3 -11  1141.8    22.1   2
   2   3 -10     3.7    10.2   2
   2   3  -9  1344.3    25.6   2
   2   3  -8   687.6    12.1   2
   2   3  -6   108.2     6.3   2
   2   3   0   309.0    13.4   2
   2   3   1   145.1     3.8   2
   2   3   3   162.9     6.4   2
   2   3   5   420.1    11.1   2
   2   3   6   374.7    11.2   2
   2   3   7  1142.2    23.9   2
   2   3   8   510.6    16.7   2
   2   3   9   210.4    10.5   2
   2   3  10    13.8    10.0   2
   2   3  11    21.5    10.6   2
   2   3  12   107.5    13.0   2
   2   3  13  2425.8    33.0   2
   2   3  14   653.0    16.3   2
   2   3  15   184.9    13.2   2
   2   3  16    19.3    13.1   2
   2   3  17   -15.7    14.7   2
   2   3  18   677.0    20.5   2
   2   3  19   298.7    22.1   2
   2   3  20   175.6    26.2   2
   2   3  21   -56.4    31.7   2
   2   3  22   620.2    42.8   2
   2   3  23   -48.5    50.7   2
   2   3  24   278.1    66.5   2
   2   4 -23   194.9    43.1   2
   2   4 -21    90.8    28.6   2
   2   4 -19   340.6    20.5   2
   2   4 -17   126.6    15.0   2
   2   4 -15   402.1    16.7   2
   2   4 -13    78.0    13.5   2
   2   4 -11   184.7    12.8   2
   2   4  -9  1361.9    21.8   2
   2   4  -7  2637.8   126.3   2
   2   4   7    72.1     8.0   2
   2   4   9  2623.2    36.3   2
   2   4  11    97.3    13.1   2
   2   4  13  1748.4    28.7   2
   2   4  15    23.9    13.7   2
   2   4  17    -1.1    15.5   2
   2   4  19    74.6    22.0   2
   2   4  21   -67.7    48.2   2
   2   4  23   889.0    84.7   2
   2   5 -25   186.2    74.1   2
   2   5 -24   -44.9    56.7   2
   2   5 -23   734.7    47.2   2
   2   5 -22  1190.0    41.5   2
   2   5 -21   764.6    32.0   2
   2   5 -20     0.4    23.2   2
   2   5 -19   -26.5    19.2   2
   2   5 -18    33.6    16.7   2
   2   5 -17   393.5    16.1   2
   2   5 -16  1621.7    25.5   2
   2   5 -15     8.7    14.9   2
   2   5 -14   294.5    16.5   2
   2   5 -13   -18.7    11.8   2
   2   5 -12   342.1    14.8   2
   2   5 -11    43.9    11.4   2
   2   5 -10    77.4     9.7   2
   2   5  -9    15.3     8.7   2
   2   5  -8   173.5    11.7   2
   2   5  -5  1112.6    27.0   2
   2   5  -2   372.0    14.4   2
   2   5   0  1286.8    26.4   2
   2   5   2   615.0    22.1   2
   2   5   4   503.7    16.8   2
   2   5   5   317.0    10.5   2
   2   5   6   637.3    14.7   2
   2   5   7   446.2    11.4   2
   2   5   8   645.6    16.8   2
   2   5   9     5.8     9.7   2
   2   5  10  1148.2    19.1   2
   2   5  11    58.2    12.3   2
   2   5  12   619.8    15.3   2
   2   5  13  2506.8    30.2   2
   2   5  14  2563.9    29.8   2
   2   5  15   100.6    13.3   2
   2   5  16   120.7    14.9   2
   2   5  17   142.4    17.4   2
   2   5  18   -18.6    20.0   2
   2   5  19   190.1    24.8   2
   2   5  20   836.3    33.8   2
   2   5  21   -11.5    37.3   2
   2   5  22  -121.4    46.2   2
   2   5  23  -121.5    58.7   2
   2   5  24   500.9    91.8   2
   2   6 -25  -112.5    82.3   2
   2   6 -23   205.1    46.6   2
   2   6 -21   -39.0    30.0   2
   2   6 -19   244.2    19.3   2
   2   6 -17   392.1    16.2   2
   2   6 -15  1860.4    28.1   2
   2   6 -13   104.1    14.3   2
   2   6 -11  1662.9    24.8   2
   2   6  -9  2701.6    40.6   2
   2   6  -7   379.1    10.4   2
   2   6   1   242.5     5.9   2
   2   6   3  1600.0    33.2   2
   2   6   5   113.6     7.6   2
   2   6   7     9.9     7.6   2
   2   6   9   120.6    11.2   2
   2   6  11  3073.9    36.5   2
   2   6  13   855.7    17.5   2
   2   6  15   875.1    19.4   2
   2   6  17   -17.0    18.6   2
   2   6  19  2015.7    38.7   2
   2   6  21   563.0    41.9   2
   2   6  23   377.6    64.6   2
   2   7 -25    60.9    77.8   2
   2   7 -24  -163.9    60.1   2
   2   7 -23   -63.8    46.6   2
   2   7 -22   -86.4    32.5   2
   2   7 -21   526.0    30.3   2
   2   7 -20   792.7    24.9   2
   2   7 -19  1496.3    28.1   2
   2   7 -18   372.1    18.3   2
   2   7 -17   241.6    15.0   2
   2   7 -16   140.7    15.4   2
   2   7 -15    56.1    13.9   2
   2   7 -14   101.6    14.9   2
   2   7 -13   326.1    15.0   2
   2   7 -12  2451.3    41.9   2
   2   7 -11   613.5    17.5   2
   2   7 -10    23.2    10.1   2
   2   7  -9   131.2    11.8   2
   2   7  -8   910.5    18.9   2
   2   7  -4    55.2     4.7   2
   2   7  -3  1056.6    35.4   2
   2   7  -1    83.6     4.4   2
   2   7   1   217.3     7.9   2
   2   7   2   437.0    10.1   2
   2   7   3     6.7     5.3   2
   2   7   4   625.2    11.2   2
   2   7   5   208.0     7.0   2
   2   7   6   590.4    12.4   2
   2   7   8     3.2     9.3   2
   2   7   9   127.7    10.4   2
   2   7  10  1570.4    21.7   2
   2   7  11  2059.8    28.7   2
   2   7  12  3095.6    36.4   2
   2   7  13   468.7    14.7   2
   2   7  14    -4.6    12.4   2
   2   7  15    25.0    13.1   2
   2   7  16   -12.0    15.0   2
   2   7  17   692.7    20.9   2
   2   7  18   637.4    27.0   2
   2   7  19   534.7    31.6   2
   2   7  20   341.2    37.4   2
   2   7  21  -198.7    40.7   2
   2   7  22  2425.7    70.0   2
   2   7  23    95.2    67.2   2
   2   7  24   -18.7    84.2   2
   2   8 -25   582.3    72.2   2
   2   8 -23   200.7    41.0   2
   2   8 -21    20.8    28.8   2
   2   8 -19   890.1    24.5   2
   2   8 -17  1875.5    27.3   2
   2   8 -15    83.4    14.3   2
   2   8 -13    17.4    12.8   2
   2   8 -11   596.4    16.2   2
   2   8  -9     4.6    10.6   2
   2   8  -7  2550.2    62.0   2
   2   8  -5   599.4    14.5   2
   2   8  -3    19.8     5.0   2
   2   8  -1    21.9     4.5   2
   2   8   5  1045.2    18.5   2
   2   8   7   649.8    15.3   2
   2   8   9  1067.9    19.3   2
   2   8  11    67.5    10.8   2
   2   8  13   539.7    15.0   2
   2   8  15    23.5    13.5   2
   2   8  17   517.2    20.8   2
   2   8  19  -114.8    26.1   2
   2   8  21   -73.6    48.0   2
   2   8  23  2578.3    87.5   2
   2   9 -25   909.2    70.4   2
   2   9 -24    69.8    51.5   2
   2   9 -23   -52.3    45.8   2
   2   9 -22  1354.1    46.4   2
   2   9 -21   133.8    30.4   2
   2   9 -20   -39.3    25.1   2
   2   9 -19    11.6    22.2   2
   2   9 -18   836.9    23.2   2
   2   9 -17   127.2    16.4   2
   2   9 -16   235.4    15.2   2
   2   9 -15   -20.3    13.4   2
   2   9 -14  2765.2    35.5   2
   2   9 -13  1550.4    27.6   2
   2   9 -12   336.9    13.0   2
   2   9 -11   712.8    17.5   2
   2   9 -10   258.2    11.8   2
   2   9  -9  1973.3    48.2   2
   2   9  -8  1118.0    17.4   2
   2   9  -7   972.9    23.5   2
   2   9  -6   884.2    13.3   2
   2   9  -5  1091.0    33.4   2
   2   9  -4    72.9     4.9   2
   2   9  -3   122.7     8.3   2
   2   9  -2   223.7     6.7   2
   2   9   0  1388.5    33.4   2
   2   9   1   109.9     5.6   2
   2   9   2  3849.3   143.9   2
   2   9   3  2626.0    30.0   2
   2   9   4  2669.3    83.1   2
   2   9   5   484.0    12.6   2
   2   9   6    11.0     6.8   2
   2   9   7   106.5     8.1   2
   2   9   8   347.4    11.0   2
   2   9   9    95.4     9.3   2
   2   9  10   190.7    10.9   2
   2   9  11    41.0    12.4   2
   2   9  12  2508.8    27.5   2
   2   9  13   500.3    14.6   2
   2   9  14   596.8    15.7   2
   2   9  15   343.1    15.6   2
   2   9  16   136.2    16.6   2
   2   9  17   997.9    25.2   2
   2   9  18   187.1    24.3   2
   2   9  19   -25.2    28.2   2
   2   9  20  1050.6    42.7   2
   2   9  21   693.7    47.1   2
   2   9  22   239.7    55.6   2
   2   9  23    23.9    84.9   2
   2  10 -25   273.8    79.2   2
   2  10 -23   127.5    48.9   2
   2  10 -21   151.0    35.0   2
   2  10 -19    94.4    24.0   2
   2  10 -17   734.0    20.7   2
   2  10 -15  1444.6    22.8   2
   2  10 -13   367.3    14.9   2
   2  10 -11  1350.9    22.7   2
   2  10  -9    90.2     9.3   2
   2  10  -7    19.5     7.7   2
   2  10  -5    23.4     8.0   2
   2  10  -1  1924.2    25.2   2
   2  10   1  2199.1    31.9   2
   2  10   3  1482.2    26.6   2
   2  10   5  1531.7    29.7   2
   2  10   7    54.6     9.0   2
   2  10   9   122.7    10.8   2
   2  10  11  1286.7    18.7   2
   2  10  13   -16.5    12.5   2
   2  10  15   118.1    15.7   2
   2  10  17   393.8    22.4   2
   2  10  19    46.8    30.3   2
   2  10  21   -96.9    46.2   2
   2  10  23  -221.9    75.6   2
   2  11 -25  -297.8    86.1   2
   2  11 -24   -61.2    81.9   2
   2  11 -23    33.9    58.4   2
   2  11 -21   524.3    40.4   2
   2  11 -20   120.5    32.7   2
   2  11 -19   236.9    26.3   2
   2  11 -18   629.8    24.3   2
   2  11 -17   146.2    18.3   2
   2  11 -16    70.2    14.7   2
   2  11 -15    20.1    14.3   2
   2  11 -14     4.1    13.2   2
   2  11 -13   464.2    31.0   2
   2  11 -12  1009.1    19.0   2
   2  11 -11   946.2    31.2   2
   2  11 -10    32.6    10.8   2
   2  11  -9   532.9    16.5   2
   2  11  -8   836.8    18.2   2
   2  11  -7    17.4     8.8   2
   2  11  -6  1436.9    19.8   2
   2  11  -5  1567.9    25.7   2
   2  11  -4   610.2    14.7   2
   2  11  -3     9.4     6.9   2
   2  11  -2  1871.8    41.5   2
   2  11  -1    80.5     5.8   2
   2  11   0   189.1     9.9   2
   2  11   1  1034.2    15.7   2
   2  11   2   293.2    10.4   2
   2  11   3    13.2     7.6   2
   2  11   4   142.7    10.8   2
   2  11   5  1419.6    19.8   2
   2  11   6    78.4     8.7   2
   2  11   7    43.7     9.1   2
   2  11   8  3354.4    35.6   2
   2  11   9  2271.8    34.2   2
   2  11  10  1728.2    23.5   2
   2  11  11   649.0    25.9   2
   2  11  12   193.8    12.8   2
   2  11  13   560.2    22.0   2
   2  11  14  2034.4    26.9   2
   2  11  15     0.5    16.4   2
   2  11  16   969.4    25.3   2
   2  11  17    27.4    24.3   2
   2  11  18     9.9    29.9   2
   2  11  19   287.9    32.5   2
   2  11  20  1444.1    49.0   2
   2  11  21  1426.1    59.7   2
   2  11  22   254.9    65.9   2
   2  11  23   285.0    82.2   2
   2  12 -23  -244.5    64.2   2
   2  12 -21  -119.6    39.8   2
   2  12 -19   290.9    27.9   2
   2  12 -17  1128.2    24.3   2
   2  12 -15   492.8    16.4   2
   2  12 -13    13.6    13.2   2
   2  12 -11   890.1    17.8   2
   2  12  -9   171.7    10.6   2
   2  12  -7    27.3    13.8   2
   2  12  -5   685.1    20.8   2
   2  12  -3   329.0    11.2   2
   2  12  -1  2310.1    34.3   2
   2  12   1    57.1     6.6   2
   2  12   3   206.5     9.2   2
   2  12   5   743.2    17.5   2
   2  12   7   239.4    11.3   2
   2  12   9    16.7    10.9   2
   2  12  11   127.6    13.2   2
   2  12  13   116.2    12.8   2
   2  12  15   -25.1    18.5   2
   2  12  17   455.9    26.4   2
   2  12  19   -44.5    39.1   2
   2  12  21  -116.9    51.5   2
   2  12  23  -134.3    84.4   2
   2  13 -23   454.8    72.6   2
   2  13 -22   759.7    59.8   2
   2  13 -21   557.1    45.6   2
   2  13 -20    67.0    34.8   2
   2  13 -19   228.2    30.6   2
   2  13 -18   143.4    21.8   2
   2  13 -17    79.8    18.5   2
   2  13 -16   -31.0    16.6   2
   2  13 -15   200.1    21.0   2
   2  13 -14   188.7    14.5   2
   2  13 -12   131.7    13.5   2
   2  13 -11  1429.1    30.1   2
   2  13 -10   620.7    16.4   2
   2  13  -9   313.9    13.0   2
   2  13  -8  3772.3    42.7   2
   2  13  -7    31.4    11.1   2
   2  13  -6    63.7    11.1   2
   2  13  -5  1227.6    24.3   2
   2  13  -4    11.8     7.8   2
   2  13  -3    58.5    11.4   2
   2  13  -2    12.0     6.7   2
   2  13  -1   172.6    11.6   2
   2  13   1   404.4    10.4   2
   2  13   2  1234.5    20.5   2
   2  13   3    24.3     7.9   2
   2  13   4  1772.5    26.4   2
   2  13   5  1043.2    19.2   2
   2  13   6  1298.8    20.9   2
   2  13   7   773.7    16.1   2
   2  13   8  1634.8    25.8   2
   2  13   9   386.2    13.4   2
   2  13  10   313.5    13.0   2
   2  13  11  1568.2    33.9   2
   2  13  12   924.0    19.2   2
   2  13  14    74.3    14.9   2
   2  13  15   208.7    19.6   2
   2  13  16  1014.6    27.4   2
   2  13  17   -19.0    25.5   2
   2  13  18  2725.0    51.4   2
   2  13  19  1076.9    44.7   2
   2  13  20   -53.9    52.7   2
   2  13  21   128.9    67.9   2
   2  13  22  1082.8   126.7   2
   2  14 -23   251.9    76.1   2
   2  14 -21   783.2    51.1   2
   2  14 -19    16.7    27.9   2
   2  14 -17  1145.2    26.8   2
   2  14 -15    -8.1    18.5   2
   2  14 -13   156.8    14.0   2
   2  14 -11   799.3    20.4   2
   2  14  -9   337.9    15.5   2
   2  14  -7  1126.2    25.2   2
   2  14  -5  1141.0    21.7   2
   2  14  -3   716.4    15.8   2
   2  14  -1  1746.3    27.5   2
   2  14   1     1.3     7.7   2
   2  14   3    59.7     8.3   2
   2  14   5   198.1    11.1   2
   2  14   7   123.0    11.7   2
   2  14   9  1051.5    19.1   2
   2  14  11   687.0    17.1   2
   2  14  13   245.8    15.6   2
   2  14  15    25.2    18.5   2
   2  14  17   228.3    26.9   2
   2  14  19  -134.3    41.0   2
   2  14  21   307.8    75.0   2
   2  15 -24  1331.8   115.9   2
   2  15 -23   356.1    83.5   2
   2  15 -22  -154.4    63.5   2
   2  15 -21    -0.3    43.8   2
   2  15 -20   127.0    36.1   2
   2  15 -19   -17.7    27.0   2
   2  15 -18   -55.6    26.4   2
   2  15 -17  1860.1    42.0   2
   2  15 -16   995.0    24.7   2
   2  15 -15   107.6    19.4   2
   2  15 -14    57.2    15.6   2
   2  15 -13     8.0    15.6   2
   2  15 -12   707.4    18.6   2
   2  15 -11  1456.2    24.1   2
   2  15 -10   342.3    14.6   2
   2  15  -9  3397.1    41.8   2
   2  15  -8  4622.5    47.0   2
   2  15  -7  2180.9    31.5   2
   2  15  -6     6.2    10.3   2
   2  15  -5     5.2    12.5   2
   2  15  -4    33.4     9.5   2
   2  15  -3    -3.5     8.0   2
   2  15  -2   940.9    25.5   2
   2  15  -1    33.2    10.9   2
   2  15   1   297.5    11.0   2
   2  15   2   115.6     8.4   2
   2  15   3   276.0    10.7   2
   2  15   4  1257.3    17.7   2
   2  15   5     6.2     9.0   2
   2  15   6  2678.0    29.3   2
   2  15   7  3543.3    40.8   2
   2  15   8  1610.9    26.1   2
   2  15   9   480.1    15.4   2
   2  15  10   624.5    18.2   2
   2  15  11  1460.4    25.0   2
   2  15  12  1844.8    27.5   2
   2  15  13  1320.9    32.2   2
   2  15  14   357.4    18.9   2
   2  15  15   567.7    25.6   2
   2  15  16   -39.9    23.3   2
   2  15  17    46.8    36.1   2
   2  15  18   -28.9    33.5   2
   2  15  19   940.9    54.6   2
   2  15  20  1346.5    64.0   2
   2  15  21   496.4    71.1   2
   2  15  22   344.8    85.0   2
   2  16 -23    42.9    90.4   2
   2  16 -21   331.8    43.0   2
   2  16 -19   254.0    33.0   2
   2  16 -17     9.5    26.8   2
   2  16 -15   224.1    19.3   2
   2  16 -13    41.7    13.3   2
   2  16 -11    13.3    14.4   2
   2  16  -9   637.0    18.3   2
   2  16  -7  3093.8    43.4   2
   2  16  -5   532.5    12.5   2
   2  16  -3  2268.3    30.8   2
   2  16  -1   802.5    26.0   2
   2  16   1    -3.3    10.0   2
   2  16   3   635.3    13.9   2
   2  16   5   999.8    17.7   2
   2  16   7   336.7    14.2   2
   2  16   9    -1.3    13.6   2
   2  16  11   -25.8    16.4   2
   2  16  13    11.7    17.8   2
   2  16  15    40.3    27.5   2
   2  16  17   676.0    40.6   2
   2  16  19   758.1    49.4   2
   2  16  21  -118.8    74.5   2
   2  17 -23   -48.2    91.8   2
   2  17 -22    32.2    56.6   2
   2  17 -21    49.0    45.2   2
   2  17 -20   184.3    42.7   2
   2  17 -19   190.7    36.7   2
   2  17 -18   175.9    33.2   2
   2  17 -16    78.9    23.8   2
   2  17 -15   115.8    19.6   2
   2  17 -14  1055.7    22.0   2
   2  17 -13    68.1    13.4   2
   2  17 -12   727.1    16.6   2
   2  17 -11   -10.8    12.6   2
   2  17 -10    13.5    13.4   2
   2  17  -9    40.4    13.0   2
   2  17  -8  5595.7    54.4   2
   2  17  -7    32.1    10.8   2
   2  17  -6    94.2    11.3   2
   2  17  -5   180.2    10.9   2
   2  17  -4  4047.6    86.1   2
   2  17  -3   874.7    16.2   2
   2  17  -2   495.4    17.2   2
   2  17   1  1100.2    22.6   2
   2  17   2  1935.8    32.9   2
   2  17   3   -15.3    10.2   2
   2  17   4  1277.2    19.8   2
   2  17   5     3.2    10.7   2
   2  17   6    65.7    11.7   2
   2  17   7   519.8    17.3   2
   2  17   8  4110.9    46.0   2
   2  17   9     4.3    15.4   2
   2  17  10   286.4    16.9   2
   2  17  11    -0.9    17.1   2
   2  17  12    18.8    16.6   2
   2  17  13    81.0    19.0   2
   2  17  14  2660.9    46.3   2
   2  17  16  2759.2    53.9   2
   2  17  17   143.9    34.5   2
   2  17  18  1445.7    56.0   2
   2  17  20  1296.1    69.8   2
   2  17  21  -125.2    74.2   2
   2  18 -23  -154.8    77.4   2
   2  18 -21   -17.0    55.9   2
   2  18 -19   103.6    43.1   2
   2  18 -17    39.2    30.1   2
   2  18 -15    62.5    18.3   2
   2  18 -13   361.2    16.6   2
   2  18 -11    28.4    13.6   2
   2  18  -9   402.8    14.4   2
   2  18  -7    -2.7    11.6   2
   2  18  -5   369.5    13.5   2
   2  18  -3   169.7    11.9   2
   2  18   1  1542.0    22.3   2
   2  18   3     7.0    12.1   2
   2  18   5   -10.8    12.1   2
   2  18   7    30.0    12.2   2
   2  18   9   233.4    18.8   2
   2  18  11   331.4    21.1   2
   2  18  13     4.4    20.6   2
   2  18  15   250.6    40.9   2
   2  18  17   644.0    66.2   2
   2  18  19   180.7    66.4   2
   2  18  21    20.0    82.8   2
   2  19 -22  -147.9    78.5   2
   2  19 -21  1032.9    86.2   2
   2  19 -20   186.3    58.5   2
   2  19 -18    -3.4    39.1   2
   2  19 -16    17.0    23.2   2
   2  19 -15   740.5    24.0   2
   2  19 -14    18.0    17.7   2
   2  19 -13   854.6    20.8   2
   2  19 -12   215.5    15.6   2
   2  19 -11   600.7    16.6   2
   2  19 -10    56.9    14.1   2
   2  19  -9    27.5    13.0   2
   2  19  -8    93.9    13.6   2
   2  19  -7    70.8    12.7   2
   2  19  -6   846.5    17.4   2
   2  19  -5   138.9    12.1   2
   2  19  -4     3.2    11.5   2
   2  19  -3   612.1    16.6   2
   2  19   1   141.6    15.1   2
   2  19   2   278.8    15.5   2
   2  19   3  1581.9    25.9   2
   2  19   4   113.1    13.1   2
   2  19   5  2342.3    34.2   2
   2  19   6  2916.3    37.1   2
   2  19   7   171.1    14.2   2
   2  19   8   853.9    20.1   2
   2  19   9  1275.7    28.1   2
   2  19  10   363.3    19.5   2
   2  19  11   -39.1    21.3   2
   2  19  12    70.4    24.0   2
   2  19  13    48.9    24.5   2
   2  19  14    -4.1    25.8   2
   2  19  15  1050.0    35.9   2
   2  19  16   357.1    52.3   2
   2  19  18    44.4    50.1   2
   2  19  20   203.2    76.9   2
   2  20 -21   306.3    82.8   2
   2  20 -19   -20.4    53.5   2
   2  20 -17    37.3    28.4   2
   2  20 -15   320.6    21.5   2
   2  20 -13   -30.6    17.3   2
   2  20 -11    -3.9    14.6   2
   2  20  -9   812.9    16.9   2
   2  20  -7   178.9    13.3   2
   2  20  -5  2697.0    31.5   2
   2  20  -3   -10.4    12.8   2
   2  20  -1  4608.2    72.2   2
   2  20   1   854.0    21.1   2
   2  20   3    17.6    15.1   2
   2  20   5  2994.2    37.4   2
   2  20   7     9.0    15.4   2
   2  20   9  1502.0    29.9   2
   2  20  11    96.2    21.6   2
   2  20  13  2498.0    52.8   2
   2  20  15   115.8    30.4   2
   2  20  17  1472.2    84.7   2
   2  20  19   265.3    68.2   2
   2  21 -20   -17.8    76.6   2
   2  21 -18   158.2    43.9   2
   2  21 -17   688.9    36.8   2
   2  21 -16   391.3    26.9   2
   2  21 -15    17.3    25.1   2
   2  21 -14   437.4    24.3   2
   2  21 -13   186.1    20.1   2
   2  21 -12   -12.5    17.6   2
   2  21 -11     5.9    16.1   2
   2  21 -10   401.0    15.9   2
   2  21  -9   -13.0    14.0   2
   2  21  -8   340.6    14.9   2
   2  21  -7    67.3    14.1   2
   2  21  -6  1461.3    24.4   2
   2  21  -5   348.6    13.6   2
   2  21  -4   280.9    14.9   2
   2  21  -3  2891.5    31.7   2
   2  21   1   340.5    17.0   2
   2  21   2   341.7    24.6   2
   2  21   3   698.9    22.5   2
   2  21   4   372.7    16.9   2
   2  21   5   438.3    18.6   2
   2  21   6   199.9    18.3   2
   2  21   7   840.7    23.6   2
   2  21   8    -2.0    18.0   2
   2  21   9    -1.1    18.3   2
   2  21  10   269.7    21.9   2
   2  21  11    -9.8    24.3   2
   2  21  12   500.8    30.0   2
   2  21  13    66.0    31.4   2
   2  21  14   -69.8    31.6   2
   2  21  15    -9.1    33.1   2
   2  21  16  2055.1    53.6   2
   2  21  17   141.9    66.0   2
   2  21  18  1649.1   118.3   2
   2  21  20   770.1    99.0   2
   2  22 -21   186.3   107.0   2
   2  22 -19   -36.2    59.3   2
   2  22 -17     7.2    33.2   2
   2  22 -15   -47.9    27.0   2
   2  22 -13   447.3    26.1   2
   2  22 -11    -6.5    17.6   2
   2  22  -9   -35.1    15.5   2
   2  22  -7  2974.3    33.6   2
   2  22  -5    43.1    13.4   2
   2  22  -3    70.1    14.3   2
   2  22  -1    83.7    22.9   2
   2  22   1   114.0    17.1   2
   2  22   3   -24.4    19.3   2
   2  22   5   519.1    20.9   2
   2  22   7   195.8    21.3   2
   2  22   9    22.0    20.3   2
   2  22  11   667.3    28.0   2
   2  22  13  1201.8    43.4   2
   2  22  15   589.7    45.9   2
   2  22  17    -2.6    51.4   2
   2  22  19  -154.1   105.1   2
   2  23 -20   105.9    80.7   2
   2  23 -19   100.6    59.2   2
   2  23 -18  -105.1    46.9   2
   2  23 -17   -82.7    36.4   2
   2  23 -16   -39.1    36.3   2
   2  23 -15   -69.3    31.8   2
   2  23 -14   367.9    31.4   2
   2  23 -13   128.8    24.9   2
   2  23 -12   560.7    26.3   2
   2  23 -11    17.0    18.2   2
   2  23 -10  1203.6    25.7   2
   2  23  -9   341.1    18.6   2
   2  23  -8   164.5    15.8   2
   2  23  -7   -19.8    15.6   2
   2  23  -6   326.9    15.3   2
   2  23  -5   339.7    16.2   2
   2  23  -4   782.7    21.4   2
   2  23  -3    83.7    15.9   2
   2  23  -1    25.1    16.3   2
   2  23   1   336.9    19.2   2
   2  23   2     6.0    22.9   2
   2  23   3   532.6    23.7   2
   2  23   4  1723.1    42.4   2
   2  23   5   -29.7    17.7   2
   2  23   6    -5.1    20.5   2
   2  23   7  1838.7    39.4   2
   2  23   8   357.9    24.6   2
   2  23   9   757.0    29.7   2
   2  23  10   769.9    28.7   2
   2  23  11   521.3    32.7   2
   2  23  12   -48.4    30.4   2
   2  23  13  1542.0    52.3   2
   2  23  14   -29.9    46.6   2
   2  23  15   427.8    48.5   2
   2  23  16   -27.4    49.5   2
   2  23  17   144.5    51.6   2
   2  23  18  -108.1    59.8   2
   2  24 -19   560.7    65.1   2
   2  24 -17   149.2    47.0   2
   2  24 -15   439.2    37.7   2
   2  24 -13    67.7    27.3   2
   2  24 -11   492.3    23.1   2
   2  24  -9   449.6    21.3   2
   2  24  -7   146.7    16.7   2
   2  24  -5   164.0    16.6   2
   2  24  -3   -22.3    15.2   2
   2  24  -1    51.8    20.4   2
   2  24   1   166.3    17.6   2
   2  24   3   462.9    22.3   2
   2  24   5   690.8    24.8   2
   2  24   7   715.9    29.0   2
   2  24   9   588.0    32.0   2
   2  24  11   200.2    36.6   2
   2  24  13   -21.5    41.6   2
   2  24  15    87.7    47.1   2
   2  24  17   769.3    61.3   2
   2  25 -19  -178.5    66.3   2
   2  25 -18   525.1    64.7   2
   2  25 -17   178.6    55.0   2
   2  25 -16   388.3    48.7   2
   2  25 -15  -120.9    44.8   2
   2  25 -14   318.0    35.8   2
   2  25 -13  2958.7    53.0   2
   2  25 -12   -35.1    25.5   2
   2  25 -11    -2.1    25.9   2
   2  25 -10   967.4    29.9   2
   2  25  -9   281.8    23.4   2
   2  25  -8    39.4    20.6   2
   2  25  -7   -31.9    17.8   2
   2  25  -6   109.7    19.0   2
   2  25  -5    32.8    17.8   2
   2  25  -4   635.1    21.4   2
   2  25  -3   280.3    18.8   2
   2  25   1   -28.3    19.4   2
   2  25   2   594.7    28.5   2
   2  25   3   367.6    24.6   2
   2  25   4   570.1    29.2   2
   2  25   5   576.1    26.4   2
   2  25   6   -17.5    24.2   2
   2  25   7   255.4    30.2   2
   2  25   8  1552.0    44.3   2
   2  25   9   139.1    34.1   2
   2  25  10   424.5    35.0   2
   2  25  11   561.8    39.0   2
   2  25  12    11.7    41.4   2
   2  25  13   913.9    52.4   2
   2  25  14   136.6    54.1   2
   2  25  15   107.2    61.7   2
   2  25  16  -109.7    64.6   2
   2  25  17   -30.3    74.2   2
   2  26 -17   108.0    62.5   2
   2  26 -15   -32.3    62.4   2
   2  26 -13   -35.2    39.2   2
   2  26 -11   440.8    32.2   2
   2  26  -9     8.7    23.3   2
   2  26  -7   154.4    20.4   2
   2  26  -5    36.0    20.7   2
   2  26  -3     5.4    19.4   2
   2  26  -1  1448.1    39.9   2
   2  26   1    20.7    21.6   2
   2  26   3    40.6    25.6   2
   2  26   5  1211.9    34.3   2
   2  26   7   -31.8    33.7   2
   2  26   9    22.4    40.0   2
   2  26  11   -42.6    41.0   2
   2  26  13   307.7    65.1   2
   2  26  15   -33.3    73.9   2
   2  26  17   187.1    85.9   2
   2  27 -18  -208.5    88.2   2
   2  27 -17  -101.8    73.0   2
   2  27 -16   351.8    74.0   2
   2  27 -15   -32.0    54.0   2
   2  27 -14   290.3    64.4   2
   2  27 -13   314.5    38.8   2
   2  27 -12   239.2    39.8   2
   2  27 -11   -54.8    34.5   2
   2  27 -10  1093.9    38.6   2
   2  27  -9   -10.3    29.6   2
   2  27  -8    70.5    25.2   2
   2  27  -7   112.2    23.4   2
   2  27  -6   -59.6    24.6   2
   2  27  -5   691.5    27.8   2
   2  27  -4   723.2    26.6   2
   2  27  -3   198.2    22.6   2
   2  27   1   599.2    27.8   2
   2  27   2    33.0    36.4   2
   2  27   3   121.2    30.9   2
   2  27   4   253.4    31.8   2
   2  27   5   275.6    29.8   2
   2  27   6   108.0    31.2   2
   2  27   7   361.9    42.3   2
   2  27   8   -27.0    42.8   2
   2  27   9   392.5    44.1   2
   2  27  10   113.1    52.5   2
   2  27  11   168.7    48.9   2
   2  27  12    76.5    54.4   2
   2  27  13  -114.1    64.5   2
   2  27  14    37.1    75.4   2
   2  27  15   538.9    90.3   2
   2  27  16    14.7   101.6   2
   2  28 -17     5.1    98.2   2
   2  28 -15   -51.1    62.6   2
   2  28 -13   688.8    47.1   2
   2  28 -11    40.4    40.7   2
   2  28  -9    77.9    33.1   2
   2  28  -7  1002.4    36.3   2
   2  28  -5    27.3    27.2   2
   2  28  -3   432.4    27.7   2
   2  28  -1     4.6    37.6   2
   2  28   1   168.2    31.6   2
   2  28   3   -23.4    35.5   2
   2  28   5   193.9    39.8   2
   2  28   7  -136.4    38.1   2
   2  28   9    61.3    49.4   2
   2  28  11  1027.1    63.1   2
   2  28  15  -135.8   111.7   2
   2  29 -16    65.9    85.2   2
   2  29 -15   102.7    73.8   2
   2  29 -14   -38.6    61.6   2
   2  29 -13   -35.4    50.8   2
   2  29 -12  -113.0    53.0   2
   2  29 -11  -131.3    51.3   2
   2  29 -10     7.4    42.3   2
   2  29  -9  1681.9    53.8   2
   2  29  -8   158.9    33.7   2
   2  29  -7  1849.0    49.5   2
   2  29  -6   244.1    34.2   2
   2  29  -5   119.5    31.5   2
   2  29  -4    22.0    30.4   2
   2  29  -3  -102.6    39.8   2
   2  29  -1    56.8    35.2   2
   2  29   1   -53.6    32.3   2
   2  29   3   313.7    42.4   2
   2  29   4   -70.0    45.2   2
   2  29   5    14.6    44.7   2
   2  29   6     6.6    41.0   2
   2  29   7   320.9    44.8   2
   2  29   8  2289.8    80.0   2
   2  29   9   918.6    69.0   2
   2  29  10   379.5    67.4   2
   2  29  11  -295.1    80.8   2
   2  29  12   382.5    75.4   2
   2  29  13   144.4    75.8   2
   2  29  14    44.2   108.8   2
   2  29  15  -217.7   127.7   2
   2  30 -15   213.9   135.4   2
   2  30 -13  -160.6    69.5   2
   2  30 -11    -4.1    57.5   2
   2  30  -9     9.0    45.8   2
   2  30  -7   311.5    42.6   2
   2  30  -5   469.4    34.7   2
   2  30  -3   386.3    40.8   2
   2  30  -1   100.8    39.7   2
   2  30   1     2.2    36.0   2
   2  30   3   520.7    52.4   2
   2  30   5    18.6    48.4   2
   2  30   7   662.1    56.2   2
   2  30   9   288.0    70.1   2
   2  30  11   235.8    86.9   2
   2  30  13   -36.0    98.1   2
   2  31 -14  -150.0    80.0   2
   2  31 -13   129.2    85.4   2
   2  31 -12  -126.0    74.3   2
   2  31 -11   908.3    74.5   2
   2  31 -10   223.1    59.7   2
   2  31  -9   -51.2    47.4   2
   2  31  -8   -85.4    43.2   2
   2  31  -7   228.3    48.6   2
   2  31  -6   -97.9    45.5   2
   2  31  -5   -13.2    37.2   2
   2  31  -4   472.8    44.4   2
   2  31  -3   753.0    44.2   2
   2  31  -1   226.1    48.6   2
   2  31   1    -5.3    39.7   2
   2  31   3   376.8    59.3   2
   2  31   4    44.8    74.4   2
   2  31   5   -16.1    56.8   2
   2  31   6   -15.9    55.3   2
   2  31   7   872.6    65.0   2
   2  31   8   118.7    85.3   2
   2  31   9  -144.9    97.5   2
   2  31  10   -53.0    94.2   2
   2  31  11  1082.8   111.9   2
   2  31  12     2.4   115.7   2
   2  31  13  -266.0   118.5   2
   2  32 -13   631.6   104.1   2
   2  32 -11   550.6    81.2   2
   2  32  -9   169.7    56.4   2
   2  32  -7    38.5    57.0   2
   2  32  -5    30.0    43.4   2
   2  32  -3    -6.7    54.7   2
   2  32  -1    64.8    85.3   2
   2  32   1    72.8    47.1   2
   2  32   3  -130.0    70.3   2
   2  32   5   -12.3    67.0   2
   2  32   7   216.9    71.2   2
   2  32   9  -206.2   114.9   2
   2  32  11   -27.4   132.4   2
   2  33 -12   318.2   107.1   2
   2  33 -11   -24.2    91.7   2
   2  33 -10   168.9    84.6   2
   2  33  -9   -58.6    64.5   2
   2  33  -8   609.9    77.4   2
   2  33  -7  -109.8    68.7   2
   2  33  -6   120.7    63.7   2
   2  33  -5    14.7    58.3   2
   2  33  -4   -16.3    49.2   2
   2  33  -3    22.1    48.4   2
   2  33   1    10.7    55.5   2
   2  33   3   112.2    85.4   2
   2  33   5   160.6    82.8   2
   2  33   6    43.3    71.1   2
   2  33   7   271.1    84.3   2
   2  33   8  -132.0    89.6   2
   2  33   9    -3.1   140.8   2
   2  33  10  -181.8   141.1   2
   2  34 -11  -245.3   111.7   2
   2  34  -9    74.8    80.4   2
   2  34  -7   512.5    84.8   2
   2  34  -5   -70.7    67.8   2
   2  34  -3   887.3    63.0   2
   2  34  -1   401.8   102.1   2
   2  34   1   303.8    70.3   2
   2  34   3    27.7   102.2   2
   2  34   5  -173.6   101.2   2
   2  34   7   -42.2    98.1   2
   2  34   9  -103.4   167.7   2
   2  35  -9   310.9    96.4   2
   2  35  -8    45.3   105.4   2
   2  35  -7   801.5   104.6   2
   2  35  -6   -39.1    92.6   2
   2  35  -5   379.3    87.1   2
   2  35  -3   215.9    69.5   2
   2  35   1   541.3    86.9   2
   2  35   3   351.3   129.4   2
   2  35   4    79.2   132.7   2
   2  35   5  -218.6   124.8   2
   2  35   6  -364.0   131.2   2
   2  35   7   516.5   121.2   2
   2  36  -7   446.6   121.0   2
   2  36  -5   927.3   106.9   2
   2  36  -3   -18.0    82.0   2
   2  36   1   489.8   133.8   2
   2  36   3   704.6   157.7   2
   2  36   5   787.0   154.3   2
   2  37  -3    64.0    98.5   2
   2  37  -1   896.6   155.9   2
   2  37   1   636.6   129.2   2
   3   0 -11    43.8    13.0   2
   3   0  16    29.0    21.2   2
   3   0  17    41.2    29.1   2
   3   0  19     2.6    37.6   2
   3   0  20    52.6    45.9   2
   3   1 -26  -151.9    69.2   2
   3   1 -25  -253.3    59.8   2
   3   1 -23  1874.5    50.3   2
   3   1 -22   -17.6    30.5   2
   3   1 -21    49.6    25.2   2
   3   1 -20    81.9    21.2   2
   3   1 -19   118.5    18.1   2
   3   1 -18   115.3    15.8   2
   3   1 -17   456.9    18.4   2
   3   1 -16   499.3    17.3   2
   3   1 -15    31.9    14.4   2
   3   1 -14  3351.5    40.9   2
   3   1 -13     1.7    13.0   2
   3   1 -12   462.5    14.0   2
   3   1 -11   101.0    10.8   2
   3   1 -10    10.2     8.2   2
   3   1  -9    63.2     8.9   2
   3   1  -8    86.6     9.0   2
   3   1  -7  1840.5    48.7   2
   3   1  -4    18.1     2.6   2
   3   1  -3   255.8     6.7   2
   3   1  -2   680.2    14.9   2
   3   1  -1    29.9     1.3   2
   3   1   0   657.5    22.3   2
   3   1   1    16.0     1.5   2
   3   1   3   360.9    12.4   2
   3   1   4    23.4     3.9   2
   3   1   5   128.2     6.4   2
   3   1   6  1921.7    48.4   2
   3   1   7   214.3     8.8   2
   3   1   8   116.1     8.5   2
   3   1   9    94.6     9.7   2
   3   1  10  1911.4    26.3   2
   3   1  11    47.3    11.7   2
   3   1  12     3.5    11.7   2
   3   1  13   744.0    16.2   2
   3   1  14   437.0    13.1   2
   3   1  15    64.6    13.0   2
   3   1  16  1202.0    21.3   2
   3   1  17  1067.8    23.5   2
   3   1  18   276.9    22.1   2
   3   1  19   -79.7    25.9   2
   3   1  20   143.4    31.8   2
   3   1  21    28.8    40.5   2
   3   1  22   -49.3    51.7   2
   3   1  23  -112.7    67.9   2
   3   1  24   -63.6    88.3   2
   3   2 -26     4.3    71.4   2
   3   2 -25    69.6    55.5   2
   3   2 -24   409.5    45.3   2
   3   2 -23   139.6    35.7   2
   3   2 -22    28.4    29.1   2
   3   2 -21   -17.8    23.9   2
   3   2 -20    -5.9    19.5   2
   3   2 -19   271.2    18.1   2
   3   2 -18   676.2    18.1   2
   3   2 -17  1571.0    25.3   2
   3   2 -16  1389.7    24.7   2
   3   2 -15    70.1    14.7   2
   3   2 -14   280.7    14.5   2
   3   2 -13   187.0    13.2   2
   3   2 -12  2209.0    38.2   2
   3   2 -11   227.5    11.8   2
   3   2 -10     0.9     7.7   2
   3   2  -9    95.3     8.1   2
   3   2  -8    87.4     9.0   2
   3   2  -7   318.0     9.9   2
   3   2  -6   170.5     9.3   2
   3   2  -5    59.3     4.7   2
   3   2   0    43.6     1.6   2
   3   2   1    22.4     2.0   2
   3   2   2   844.9    14.3   2
   3   2   3   142.9     4.7   2
   3   2   4  1316.1    31.0   2
   3   2   5  2532.2    36.6   2
   3   2   6   569.6    12.9   2
   3   2   7   182.3    10.1   2
   3   2   8   309.7    12.1   2
   3   2   9    12.3     9.2   2
   3   2  10   118.6    10.1   2
   3   2  11   449.4    14.3   2
   3   2  12  2022.2    28.3   2
   3   2  13    55.8    11.6   2
   3   2  14    -0.1    11.5   2
   3   2  15   169.9    12.0   2
   3   2  16    60.2    13.0   2
   3   2  17    35.8    15.9   2
   3   2  18    89.6    19.9   2
   3   2  19   174.5    24.0   2
   3   2  20   141.6    29.6   2
   3   2  21    95.1    36.8   2
   3   2  22   670.0    49.1   2
   3   2  23  -106.0    59.6   2
   3   2  24   132.4   130.4   2
   3   3 -26   364.8    86.0   2
   3   3 -23   250.4    57.8   2
   3   3 -22   -18.9    32.0   2
   3   3 -20   237.0    22.9   2
   3   3 -19   371.3    21.8   2
   3   3 -17   289.3    29.3   2
   3   3 -13   834.6    31.6   2
   3   3 -10   479.4    17.9   2
   3   3  -8   268.6     9.3   2
   3   3  -2   644.9    11.6   2
   3   3  -1   414.5    11.7   2
   3   3   2   115.0     4.8   2
   3   3   4    72.9     4.5   2
   3   3   5   497.3    12.5   2
   3   3   7  1510.6    24.0   2
   3   3   8    12.0     7.8   2
   3   3  10   380.3    13.5   2
   3   3  11   434.3    17.2   2
   3   3  13   351.3    20.3   2
   3   3  14  1391.9    22.7   2
   3   3  19   752.0    38.3   2
   3   3  20   808.3    51.8   2
   3   4 -26  1201.4    92.7   2
   3   4 -25  -144.6    66.6   2
   3   4 -24   285.2    52.0   2
   3   4 -23   181.5    41.2   2
   3   4 -22   -48.2    32.3   2
   3   4 -21   109.9    26.8   2
   3   4 -20   -47.0    21.8   2
   3   4 -19    43.0    18.4   2
   3   4 -18  3424.6    36.2   2
   3   4 -17  2293.7    30.5   2
   3   4 -16   136.4    15.6   2
   3   4 -15  1226.9    24.9   2
   3   4 -14   914.4    19.9   2
   3   4 -13  1666.9    33.8   2
   3   4 -12    41.5    11.1   2
   3   4 -11  1073.7    19.4   2
   3   4 -10   -22.3    11.8   2
   3   4  -9   318.7    13.5   2
   3   4  -8    18.4     9.6   2
   3   4  -3   709.4    17.2   2
   3   4  -2   375.0     9.0   2
   3   4  -1   311.7     6.1   2
   3   4   0   119.9     3.0   2
   3   4   1   379.8     6.6   2
   3   4   2    11.1     3.3   2
   3   4   3    70.7     3.7   2
   3   4   5  2089.9    36.6   2
   3   4   6  1186.0    21.3   2
   3   4   7   559.9    12.1   2
   3   4   8   127.5     9.1   2
   3   4   9   238.3    11.0   2
   3   4  10   148.1    11.4   2
   3   4  11   621.0    14.3   2
   3   4  12    56.6    11.1   2
   3   4  13   107.9    12.1   2
   3   4  14   -12.5    11.1   2
   3   4  15   662.3    15.0   2
   3   4  16  1014.5    18.9   2
   3   4  17   -15.1    15.4   2
   3   4  18  4935.1    48.2   2
   3   4  19   -17.8    22.1   2
   3   4  20   -67.2    27.6   2
   3   4  21  -106.8    33.7   2
   3   4  22   603.6    45.6   2
   3   4  23    -9.6    60.2   2
   3   5 -26  -102.9    89.7   2
   3   5 -25   -81.7    67.6   2
   3   5 -24  -115.1    53.3   2
   3   5 -23   243.8    42.7   2
   3   5 -22   222.2    34.0   2
   3   5 -21   -44.1    27.2   2
   3   5 -20  1779.5    33.8   2
   3   5 -19   176.6    18.3   2
   3   5 -18   947.0    20.3   2
   3   5 -17   293.2    16.5   2
   3   5 -16   425.7    16.6   2
   3   5 -15  3437.8    37.7   2
   3   5 -14   623.8    19.2   2
   3   5 -13   572.0    17.1   2
   3   5 -12   945.5    19.7   2
   3   5 -11   635.8    18.5   2
   3   5 -10    84.2     9.3   2
   3   5  -9  1189.7    17.9   2
   3   5  -8    31.9     8.2   2
   3   5  -7   557.3    11.9   2
   3   5  -6   106.0     6.2   2
   3   5  -4   390.5    10.4   2
   3   5  -1     9.8     3.0   2
   3   5   0    26.1     2.1   2
   3   5   1   558.8     9.9   2
   3   5   2   424.8     9.0   2
   3   5   3    48.8     3.4   2
   3   5   4   136.1     6.3   2
   3   5   6   223.9    10.0   2
   3   5   7     6.3     7.8   2
   3   5   8    19.6     9.0   2
   3   5   9   337.2    11.3   2
   3   5  10    54.5     9.3   2
   3   5  11   126.4    10.8   2
   3   5  12  2047.9    25.0   2
   3   5  13   104.0    12.7   2
   3   5  14    52.2    11.6   2
   3   5  15   -11.4    13.3   2
   3   5  16  2043.3    29.1   2
   3   5  17   -10.0    17.3   2
   3   5  18    66.0    20.8   2
   3   5  19   -10.4    25.1   2
   3   5  20   -22.0    31.2   2
   3   5  21   -44.2    38.1   2
   3   5  22  1070.1    54.3   2
   3   5  23   175.6    62.5   2
   3   6 -26   167.3   118.6   2
   3   6 -25   257.0    70.7   2
   3   6 -23   567.5    98.4   2
   3   6 -20   782.4    25.1   2
   3   6 -19  1055.7    28.1   2
   3   6 -17    -0.8    13.8   2
   3   6 -16   195.9    19.2   2
   3   6 -14   325.8    19.1   2
   3   6 -13   185.3    16.3   2
   3   6 -11   544.2    19.1   2
   3   6 -10   701.6    17.5   2
   3   6  -8  2501.2    50.5   2
   3   6  -7    40.5     7.5   2
   3   6  -4   119.7     6.0   2
   3   6  -2   842.9    21.7   2
   3   6  -1    49.6     4.0   2
   3   6   1    35.6     4.4   2
   3   6   2  1610.4    24.1   2
   3   6   4   414.4     8.5   2
   3   6   5  1453.4    18.1   2
   3   6   7    29.1     7.7   2
   3   6   8   592.6    13.0   2
   3   6  10   498.2    13.2   2
   3   6  11   257.0    12.0   2
   3   6  13   369.8    13.9   2
   3   6  14  2178.4    35.2   2
   3   6  16    42.4    17.4   2
   3   6  17    -3.7    20.9   2
   3   6  22    37.8    57.2   2
   3   6  23    71.1    74.1   2
   3   7 -26   -55.8    93.3   2
   3   7 -25   209.6    73.6   2
   3   7 -24   -38.0    48.3   2
   3   7 -23    18.0    46.6   2
   3   7 -22   -39.0    31.1   2
   3   7 -21  1059.2    34.4   2
   3   7 -20  2317.4    38.3   2
   3   7 -19  1879.6    32.8   2
   3   7 -18   895.6    20.6   2
   3   7 -17   201.8    14.6   2
   3   7 -16   212.3    15.1   2
   3   7 -15   311.3    14.9   2
   3   7 -14   167.2    14.5   2
   3   7 -13  1276.1    30.6   2
   3   7 -12   383.7    14.7   2
   3   7 -11  2165.5    36.6   2
   3   7 -10  1327.1    36.6   2
   3   7  -9   223.0    11.3   2
   3   7  -8    74.0     8.8   2
   3   7  -6   342.7     8.4   2
   3   7  -5  1684.0    60.1   2
   3   7  -4   350.1     8.2   2
   3   7  -3  1425.6    21.5   2
   3   7   0   265.3     9.9   2
   3   7   1   177.5     5.9   2
   3   7   2    18.6     3.8   2
   3   7   3  1438.9    42.1   2
   3   7   4    46.8     5.1   2
   3   7   5   246.3     8.5   2
   3   7   6    37.3     6.2   2
   3   7   7  2967.1    45.1   2
   3   7   8     4.8     7.7   2
   3   7   9   573.4    13.7   2
   3   7  10  1351.0    22.8   2
   3   7  11   373.4    12.4   2
   3   7  12    64.2    11.5   2
   3   7  13    29.8    11.8   2
   3   7  14    86.2    12.6   2
   3   7  15  1694.0    24.3   2
   3   7  16   144.1    16.8   2
   3   7  17    68.4    22.5   2
   3   7  18   496.0    29.7   2
   3   7  19   -20.9    33.5   2
   3   7  20   -42.4    44.1   2
   3   7  21   105.1    54.7   2
   3   7  22     5.9    60.5   2
   3   7  23  2783.4    98.8   2
   3   8 -24  -123.3    49.7   2
   3   8 -23   530.9    46.8   2
   3   8 -22  -101.6    36.6   2
   3   8 -21   -19.7    27.1   2
   3   8 -20   522.7    24.3   2
   3   8 -19    13.8    18.7   2
   3   8 -18    39.3    16.4   2
   3   8 -17   653.2    17.7   2
   3   8 -16    19.9    14.5   2
   3   8 -15  2045.1    26.8   2
   3   8 -14  2476.5    40.9   2
   3   8 -13  6322.0    80.6   2
   3   8 -12   129.9    13.0   2
   3   8 -11  1587.6    30.0   2
   3   8 -10  2316.1    30.4   2
   3   8  -9  2897.1    48.1   2
   3   8  -7   667.5    14.5   2
   3   8  -6  1136.7    18.1   2
   3   8  -5   146.0     5.8   2
   3   8  -4    12.2     5.2   2
   3   8  -3  1681.1    33.5   2
   3   8  -2    13.1     4.5   2
   3   8  -1    43.2     4.5   2
   3   8   0    61.5     4.5   2
   3   8   1    77.1     5.2   2
   3   8   2    66.8     6.1   2
   3   8   3   144.9     6.6   2
   3   8   4  2630.9    38.6   2
   3   8   5   423.9    10.8   2
   3   8   6    34.6     6.6   2
   3   8   7    20.8     7.6   2
   3   8   8    18.3    11.2   2
   3   8   9   257.5    10.4   2
   3   8  10   741.5    15.4   2
   3   8  11    57.1    13.5   2
   3   8  12    74.7    11.7   2
   3   8  13    39.3    12.3   2
   3   8  14  1285.0    22.3   2
   3   8  15    86.6    14.8   2
   3   8  16   288.5    18.3   2
   3   8  17    73.4    21.1   2
   3   8  18   193.3    25.2   2
   3   8  19   -50.8    37.5   2
   3   8  20  1168.1    51.8   2
   3   8  21   166.5    57.6   2
   3   8  23   -61.7    97.4   2
   3   9 -25   206.6    93.5   2
   3   9 -22     2.8    44.1   2
   3   9 -20   127.2    23.9   2
   3   9 -19    72.2    19.6   2
   3   9 -17    26.8    15.8   2
   3   9 -16   429.7    16.5   2
   3   9 -14   478.4    16.5   2
   3   9 -13   545.8    15.3   2
   3   9 -11   234.6    12.0   2
   3   9 -10    58.7     9.7   2
   3   9  -8  1335.7    21.4   2
   3   9  -7   129.5     7.1   2
   3   9  -5  1951.0    29.6   2
   3   9  -4  2966.1    42.8   2
   3   9  -2   773.0    22.6   2
   3   9  -1  1096.2    15.9   2
   3   9   1   301.9     6.7   2
   3   9   2  2375.8    35.0   2
   3   9   4    24.7     6.0   2
   3   9   5   950.6    16.7   2
   3   9   7    99.6     8.9   2
   3   9   8  1080.7    19.0   2
   3   9  10   221.6    11.3   2
   3   9  11    -0.6    11.0   2
   3   9  13  1947.5    28.1   2
   3   9  14    95.2    12.7   2
   3   9  16   116.2    18.3   2
   3   9  17    71.2    21.8   2
   3   9  19    16.5    33.4   2
   3   9  20  1093.8    50.5   2
   3  10 -25    -4.2    73.5   2
   3  10 -24   -53.0    56.6   2
   3  10 -23     2.6    46.1   2
   3  10 -22  1168.1    44.5   2
   3  10 -21   252.4    31.1   2
   3  10 -20  1120.5    34.1   2
   3  10 -19   -11.1    22.2   2
   3  10 -18   -17.1    18.9   2
   3  10 -17   429.1    18.5   2
   3  10 -16   452.0    16.9   2
   3  10 -15   303.6    14.5   2
   3  10 -14   659.8    17.2   2
   3  10 -12    49.4    12.6   2
   3  10 -11  1972.7    25.3   2
   3  10  -9  1339.1    21.0   2
   3  10  -8   220.6     9.3   2
   3  10  -7     8.4     7.3   2
   3  10  -6  1004.4    17.6   2
   3  10  -5  3399.4    43.5   2
   3  10  -4    22.7     7.1   2
   3  10  -3   663.9    19.9   2
   3  10  -2   114.4     7.6   2
   3  10  -1  1211.2    17.1   2
   3  10   1   874.6    13.2   2
   3  10   2   124.8     6.7   2
   3  10   3   526.6    11.8   2
   3  10   4  1716.1    31.8   2
   3  10   5    -1.0     8.7   2
   3  10   6   277.9    10.1   2
   3  10   7   286.9    10.9   2
   3  10   8  3768.4    40.6   2
   3  10   9   245.9    11.9   2
   3  10  11  5953.0    63.5   2
   3  10  12    49.0    13.6   2
   3  10  13     3.2    13.7   2
   3  10  14   131.8    15.0   2
   3  10  15  1332.8    23.6   2
   3  10  16    56.7    19.5   2
   3  10  17   141.9    24.7   2
   3  10  18  1104.0    35.3   2
   3  10  19  3340.3    59.3   2
   3  10  20   661.6    46.4   2
   3  10  21   600.6    57.7   2
   3  10  22   237.7    71.1   2
   3  10  23   565.2    89.9   2
   3  11 -25    85.8    78.4   2
   3  11 -24   753.9    67.2   2
   3  11 -23   284.6    51.0   2
   3  11 -22   211.5    44.2   2
   3  11 -21   -33.3    35.9   2
   3  11 -20  1667.2    40.2   2
   3  11 -19    10.9    24.4   2
   3  11 -18   -16.1    20.0   2
   3  11 -17   358.5    22.6   2
   3  11 -16   632.1    17.1   2
   3  11 -15    16.1    13.9   2
   3  11 -14    72.4    23.7   2
   3  11 -13    13.9    12.0   2
   3  11 -12    30.8    11.9   2
   3  11 -10    31.1     9.3   2
   3  11  -9    17.6     9.1   2
   3  11  -8    29.6     8.7   2
   3  11  -7  1008.2    16.7   2
   3  11  -6  1159.6    20.0   2
   3  11  -5   402.5    11.8   2
   3  11  -4   981.1    18.9   2
   3  11  -2   923.1    15.2   2
   3  11  -1  1515.9    25.7   2
   3  11   1    85.7     6.4   2
   3  11   2  1137.0    15.0   2
   3  11   3    82.9     8.1   2
   3  11   4   449.6    11.7   2
   3  11   5   889.3    17.4   2
   3  11   6    17.3     8.9   2
   3  11   7   881.1    16.5   2
   3  11   8    21.9    10.9   2
   3  11   9   215.4    12.1   2
   3  11  10  2244.4    27.7   2
   3  11  12    -2.7    14.4   2
   3  11  13  3725.7    38.4   2
   3  11  14   257.8    19.5   2
   3  11  15    18.4    18.0   2
   3  11  16   677.0    22.6   2
   3  11  17   206.0    25.6   2
   3  11  18    -4.8    29.4   2
   3  11  19  3633.2    81.7   2
   3  11  20   -94.9    45.4   2
   3  11  21   201.6    58.2   2
   3  11  22   174.1    76.8   2
   3  12 -23   178.8    61.9   2
   3  12 -22   162.3    47.2   2
   3  12 -20    -6.9    30.9   2
   3  12 -19   197.9    26.3   2
   3  12 -17   -60.3    17.0   2
   3  12 -16   296.2    16.9   2
   3  12 -14    71.7    14.4   2
   3  12 -13   218.6    13.7   2
   3  12 -11    31.8    11.0   2
   3  12 -10  2345.9    27.2   2
   3  12  -8   254.6    10.4   2
   3  12  -7    16.7     9.3   2
   3  12  -5   772.1    14.1   2
   3  12  -4   307.5    10.3   2
   3  12  -2    61.5     6.9   2
   3  12  -1   274.6     8.6   2
   3  12   1   832.3    14.3   2
   3  12   2    16.1     6.2   2
   3  12   4    50.5     8.4   2
   3  12   5  3147.6    40.5   2
   3  12   7   252.5    13.7   2
   3  12   8   879.3    17.7   2
   3  12  10  1504.1    26.4   2
   3  12  11    65.3    14.1   2
   3  12  13  1658.8    29.3   2
   3  12  14    28.9    17.5   2
   3  12  16   -49.1    22.5   2
   3  12  17   544.7    29.7   2
   3  12  19   846.8    40.1   2
   3  12  20   -58.3    48.8   2
   3  12  22  1083.2    86.1   2
   3  13 -24     0.6    84.3   2
   3  13 -23   844.8    70.0   2
   3  13 -22    54.3    51.2   2
   3  13 -21   788.2    46.3   2
   3  13 -20    14.7    35.0   2
   3  13 -18   708.2    24.7   2
   3  13 -17  1629.8    30.2   2
   3  13 -16   199.4    32.2   2
   3  13 -15   -13.2    14.0   2
   3  13 -14   -16.8    13.2   2
   3  13 -12     7.6    13.5   2
   3  13 -11  3827.5    42.5   2
   3  13 -10  3279.0    47.2   2
   3  13  -9  1185.7    21.0   2
   3  13  -8   363.0    12.7   2
   3  13  -7    20.7    12.1   2
   3  13  -6  2950.4    38.5   2
   3  13  -5    37.9     8.6   2
   3  13  -4    13.9     8.9   2
   3  13  -3   167.2     9.9   2
   3  13  -2    98.3     8.0   2
   3  13  -1   574.0    12.9   2
   3  13   1    80.8     7.9   2
   3  13   2   480.6    11.1   2
   3  13   3   317.0     9.2   2
   3  13   4  1738.9    26.2   2
   3  13   5  1054.7    18.0   2
   3  13   6    21.1    12.2   2
   3  13   7   136.1    14.4   2
   3  13   8  2514.0    35.8   2
   3  13   9  1831.5    35.9   2
   3  13  10    -1.2    15.4   2
   3  13  11   470.5    17.2   2
   3  13  12   593.4    19.3   2
   3  13  13    39.9    18.4   2
   3  13  14  3040.3    41.1   2
   3  13  15   -38.4    22.3   2
   3  13  16   554.3    29.7   2
   3  13  17   305.6    30.8   2
   3  13  18  6447.9    82.9   2
   3  13  19    68.5    44.8   2
   3  13  20   172.6    54.9   2
   3  13  21  -103.6    66.1   2
   3  13  22   -30.8    90.5   2
   3  14 -24   121.4    91.9   2
   3  14 -23  1947.0    87.5   2
   3  14 -22    54.8    59.8   2
   3  14 -21  -126.7    46.9   2
   3  14 -19   826.7    31.0   2
   3  14 -18    50.9    24.4   2
   3  14 -16   325.0    18.0   2
   3  14 -15    -5.9    15.2   2
   3  14 -14   276.4    21.0   2
   3  14 -13    94.1    13.5   2
   3  14 -12  2096.9    28.8   2
   3  14 -11   241.1    14.9   2
   3  14 -10   104.0    12.8   2
   3  14  -9   876.8    22.0   2
   3  14  -8    90.7    10.4   2
   3  14  -7   405.5    14.4   2
   3  14  -6     6.1     9.7   2
   3  14  -5  5468.0    80.8   2
   3  14  -4  2531.8    37.1   2
   3  14  -3   557.6    20.6   2
   3  14  -2    15.0     8.3   2
   3  14  -1   507.1    13.0   2
   3  14   1  3533.9    45.6   2
   3  14   2   581.0    14.6   2
   3  14   3   109.1     9.3   2
   3  14   4  1491.8    21.6   2
   3  14   5   972.2    22.6   2
   3  14   6   191.9    11.7   2
   3  14   8     2.6    15.0   2
   3  14   9    38.9    15.3   2
   3  14  10    -8.6    16.3   2
   3  14  11   789.0    33.8   2
   3  14  12   525.2    20.7   2
   3  14  13   190.8    21.4   2
   3  14  14   135.7    24.2   2
   3  14  15    15.4    24.0   2
   3  14  16    17.8    28.8   2
   3  14  17   116.3    35.7   2
   3  14  18   224.4    38.6   2
   3  14  19    52.6    48.0   2
   3  14  20   301.1    73.6   2
   3  14  21  -140.7    71.7   2
   3  14  22  -181.3   106.9   2
   3  15 -23  -205.7    77.6   2
   3  15 -22    59.1    50.7   2
   3  15 -20   216.0    39.2   2
   3  15 -19    91.5    28.5   2
   3  15 -17   836.8    25.1   2
   3  15 -16   133.0    18.2   2
   3  15 -14    77.7    15.1   2
   3  15 -13    10.6    14.6   2
   3  15 -11    24.1    13.0   2
   3  15 -10   110.9    12.6   2
   3  15  -8   569.2    15.6   2
   3  15  -7    27.0    10.9   2
   3  15  -5    17.4    10.6   2
   3  15  -4  1866.8    23.8   2
   3  15  -2   671.2    14.7   2
   3  15  -1  3078.9    35.7   2
   3  15   1   944.0    17.5   2
   3  15   2    44.1     8.8   2
   3  15   4  1750.8    22.5   2
   3  15   5  1585.7    32.1   2
   3  15   7    -5.4    13.0   2
   3  15   8   286.9    18.3   2
   3  15  10  1003.3    25.7   2
   3  15  11    84.4    20.5   2
   3  15  13   623.1    26.1   2
   3  15  14   457.8    28.4   2
   3  15  16   418.4    33.5   2
   3  15  17   -32.6    38.4   2
   3  15  19   579.9    60.2   2
   3  15  20   724.2    67.4   2
   3  16 -23   259.3    69.5   2
   3  16 -22   -50.2    55.7   2
   3  16 -21   -32.7    50.2   2
   3  16 -20    70.0    37.1   2
   3  16 -19   389.1    40.7   2
   3  16 -18    11.0    26.2   2
   3  16 -17     2.4    23.6   2
   3  16 -15    -1.7    16.9   2
   3  16 -14   188.8    15.0   2
   3  16 -13  1764.2    30.6   2
   3  16 -12  1164.9    22.0   2
   3  16 -11    11.2    14.0   2
   3  16 -10   505.1    16.3   2
   3  16  -9   324.2    15.3   2
   3  16  -8   444.9    15.3   2
   3  16  -7   697.4    19.0   2
   3  16  -6    15.0    10.9   2
   3  16  -5    94.7    10.4   2
   3  16  -4   463.1    12.2   2
   3  16  -2   179.3    10.6   2
   3  16  -1    22.4    10.0   2
   3  16   1   132.0    12.7   2
   3  16   2  1187.3    19.2   2
   3  16   3  2659.3    40.8   2
   3  16   4    87.2    10.3   2
   3  16   5   158.0    14.2   2
   3  16   6    20.7    16.8   2
   3  16   7  1297.1    27.2   2
   3  16   8  2423.0    53.3   2
   3  16   9    -2.2    21.5   2
   3  16  10    42.2    19.8   2
   3  16  11   736.3    25.2   2
   3  16  12  2375.7    40.6   2
   3  16  14   -23.3    29.1   2
   3  16  15  1279.4    44.1   2
   3  16  17     5.8    41.8   2
   3  16  18   241.8    52.5   2
   3  16  20    39.1    86.1   2
   3  16  21   -79.3    85.7   2
   3  17 -23   177.2    73.4   2
   3  17 -22   158.8    58.3   2
   3  17 -21   434.6    50.4   2
   3  17 -20   577.1    62.2   2
   3  17 -19    20.3    33.9   2
   3  17 -18     7.1    29.2   2
   3  17 -16    -1.2    21.0   2
   3  17 -15    49.0    17.1   2
   3  17 -14    37.4    15.8   2
   3  17 -13   159.8    14.7   2
   3  17 -12    74.6    12.9   2
   3  17 -11   295.3    14.1   2
   3  17 -10  1910.7    29.3   2
   3  17  -9    -1.8    12.4   2
   3  17  -8   492.0    15.0   2
   3  17  -7    53.1    11.6   2
   3  17  -6     2.3    12.2   2
   3  17  -5   397.2    12.6   2
   3  17  -4   650.0    15.1   2
   3  17  -2  1672.7    25.8   2
   3  17  -1    73.4    11.7   2
   3  17   1   898.6    22.6   2
   3  17   2  1748.8    28.6   2
   3  17   3  1331.3    28.0   2
   3  17   4   119.4    12.1   2
   3  17   5    64.7    12.2   2
   3  17   6  3731.3    59.5   2
   3  17   7  1087.1    28.7   2
   3  17   8  1283.3    27.3   2
   3  17   9   -12.0    18.2   2
   3  17  10   344.5    22.1   2
   3  17  11    44.3    23.5   2
   3  17  12   -11.5    25.6   2
   3  17  13   316.9    27.8   2
   3  17  15   -62.3    37.5   2
   3  17  16   -83.5    45.6   2
   3  17  18  1325.1    67.8   2
   3  17  19    72.6    57.3   2
   3  17  21  -138.0   117.4   2
   3  18 -23   -19.6    80.5   2
   3  18 -22   -91.6    65.4   2
   3  18 -20  1703.4    57.6   2
   3  18 -19   -49.6    37.0   2
   3  18 -17   263.5    27.7   2
   3  18 -16   928.7    25.3   2
   3  18 -14  1407.9    25.5   2
   3  18 -13  1047.6    21.5   2
   3  18 -11    46.6    13.4   2
   3  18 -10    45.2    13.1   2
   3  18  -8   328.9    13.9   2
   3  18  -7   673.9    15.6   2
   3  18  -5    44.5    12.2   2
   3  18  -4   107.3    12.1   2
   3  18  -2    96.0    12.0   2
   3  18  -1  3836.5    51.0   2
   3  18   1  1223.5    27.2   2
   3  18   2  2182.9    34.3   2
   3  18   4   186.3    14.4   2
   3  18   5   131.9    13.9   2
   3  18   7   597.4    22.2   2
   3  18   8  2576.8    41.1   2
   3  18  10     1.5    20.9   2
   3  18  11   -21.9    21.3   2
   3  18  13   162.2    29.1   2
   3  18  14   214.2    30.6   2
   3  18  16  1153.6    57.6   2
   3  18  17   141.9    62.8   2
   3  18  19   -61.5    63.8   2
   3  18  20   -16.0    78.0   2
   3  19 -21   157.9    70.5   2
   3  19 -20   171.7    50.1   2
   3  19 -18   -48.2    38.1   2
   3  19 -17   178.8    30.0   2
   3  19 -15   533.7    24.0   2
   3  19 -14   548.1    20.1   2
   3  19 -13    41.9    15.9   2
   3  19 -12    18.7    14.5   2
   3  19 -11   110.2    14.5   2
   3  19 -10  1400.2    23.1   2
   3  19  -9   133.2    12.5   2
   3  19  -8    78.1    15.3   2
   3  19  -7   668.7    16.8   2
   3  19  -6    19.1    14.6   2
   3  19  -5   593.5    15.4   2
   3  19  -4    32.5    12.9   2
   3  19  -3   321.8    25.5   2
   3  19  -2     4.3    14.0   2
   3  19  -1    20.7    15.0   2
   3  19   1   441.7    21.4   2
   3  19   2   320.5    16.4   2
   3  19   3  1139.1    36.4   2
   3  19   4    -5.1    18.7   2
   3  19   5   303.5    17.5   2
   3  19   6   389.5    18.2   2
   3  19   7   748.3    27.3   2
   3  19   8  1405.4    36.5   2
   3  19   9   779.9    26.2   2
   3  19  10    74.3    24.1   2
   3  19  11  1415.9    35.4   2
   3  19  12   544.6    30.2   2
   3  19  13    19.6    31.0   2
   3  19  14   103.0    36.9   2
   3  19  15   375.9    40.7   2
   3  19  17   -85.2    56.0   2
   3  19  18    19.2    58.4   2
   3  19  20    36.9    89.6   2
   3  20 -22  1463.1    92.8   2
   3  20 -21     0.2    66.6   2
   3  20 -19  1384.5    61.5   2
   3  20 -18  1030.7    44.3   2
   3  20 -16    35.9    24.7   2
   3  20 -15    -1.0    21.5   2
   3  20 -14    88.5    19.4   2
   3  20 -13    -7.6    17.3   2
   3  20 -12  1525.9    25.7   2
   3  20 -11   -19.1    14.4   2
   3  20 -10    10.9    14.4   2
   3  20  -9  2044.5    26.6   2
   3  20  -8     6.6    13.3   2
   3  20  -7    22.3    13.9   2
   3  20  -6   301.9    14.7   2
   3  20  -5  2278.8    27.8   2
   3  20  -4   269.1    16.4   2
   3  20  -3   931.7    37.6   2
   3  20  -2   423.9    17.2   2
   3  20  -1    13.5    15.2   2
   3  20   1   -46.4    20.5   2
   3  20   2   -18.7    16.8   2
   3  20   3    78.5    27.2   2
   3  20   4   198.1    19.5   2
   3  20   5   709.9    21.9   2
   3  20   6    73.9    17.8   2
   3  20   7    27.6    20.0   2
   3  20   8    47.6    21.2   2
   3  20   9   -47.3    21.4   2
   3  20  10  2355.4    71.0   2
   3  20  11   203.9    28.2   2
   3  20  12    51.8    31.0   2
   3  20  13    65.8    36.5   2
   3  20  14   154.9    47.9   2
   3  20  15  -126.2    38.2   2
   3  20  16   172.9    45.6   2
   3  20  18   -39.1    76.0   2
   3  20  19  1513.3    92.6   2
   3  21 -22   -20.0    91.2   2
   3  21 -20  -109.2    71.5   2
   3  21 -19   193.2    51.2   2
   3  21 -17   128.7    31.5   2
   3  21 -16   977.3    33.2   2
   3  21 -14   258.9    23.1   2
   3  21 -13   184.8    20.1   2
   3  21 -11   144.1    17.1   2
   3  21 -10    49.9    15.2   2
   3  21  -8    -4.3    13.9   2
   3  21  -7    -1.0    14.2   2
   3  21  -5    16.1    15.5   2
   3  21  -4  1353.8    27.5   2
   3  21  -2   605.4    21.3   2
   3  21  -1    -3.3    17.0   2
   3  21   1   -28.7    18.8   2
   3  21   2     2.9    19.2   2
   3  21   4     7.2    19.1   2
   3  21   5    34.2    20.0   2
   3  21   7  1202.4    29.1   2
   3  21   8   304.1    23.7   2
   3  21  10     6.8    29.7   2
   3  21  11   -33.8    33.8   2
   3  21  13   187.1    41.2   2
   3  21  14   401.4    47.7   2
   3  21  16  1335.5    61.2   2
   3  21  17    24.5    57.5   2
   3  21  19  -133.8   109.6   2
   3  22 -21  -156.1    98.6   2
   3  22 -20  1215.4    75.1   2
   3  22 -19   439.6    48.9   2
   3  22 -18   406.0    41.5   2
   3  22 -17  -104.3    35.2   2
   3  22 -16   150.6    38.4   2
   3  22 -15    54.6    26.7   2
   3  22 -14   -11.0    24.2   2
   3  22 -13   121.6    22.1   2
   3  22 -12   355.4    20.8   2
   3  22 -11    13.9    17.9   2
   3  22 -10   138.9    16.8   2
   3  22  -9    -2.6    15.2   2
   3  22  -8   385.3    16.8   2
   3  22  -7  2107.2    26.6   2
   3  22  -6   151.8    16.5   2
   3  22  -5   249.0    16.7   2
   3  22  -4  1971.7    33.8   2
   3  22  -2   435.8    21.9   2
   3  22  -1   -24.7    19.7   2
   3  22   1    -0.3    19.2   2
   3  22   2   148.6    20.0   2
   3  22   3   478.7    34.5   2
   3  22   4   311.9    23.5   2
   3  22   5    52.0    20.7   2
   3  22   6    36.7    21.9   2
   3  22   7   -24.6    23.0   2
   3  22   8   319.9    28.0   2
   3  22   9   434.2    27.1   2
   3  22  10  1997.5    51.0   2
   3  22  11    -0.3    36.9   2
   3  22  12   447.8    42.2   2
   3  22  13   187.6    47.2   2
   3  22  14   111.5    59.4   2
   3  22  15     5.7    63.5   2
   3  22  17   119.9    67.7   2
   3  22  18   439.0    82.1   2
   3  23 -21  -107.5   159.5   2
   3  23 -20   102.2    76.5   2
   3  23 -19    70.8    53.8   2
   3  23 -18   -12.0    45.7   2
   3  23 -17  1020.7    56.9   2
   3  23 -16   -10.2    34.8   2
   3  23 -15     4.9    31.7   2
   3  23 -14     6.5    26.9   2
   3  23 -13    41.3    34.3   2
   3  23 -12   448.4    23.5   2
   3  23 -11    20.1    20.1   2
   3  23 -10   114.3    19.5   2
   3  23  -9    13.7    17.1   2
   3  23  -8   207.5    17.7   2
   3  23  -7    29.6    16.1   2
   3  23  -6    12.5    18.3   2
   3  23  -5    -8.2    18.1   2
   3  23  -4  2016.7    33.3   2
   3  23  -2   608.8    23.0   2
   3  23  -1   233.9    19.9   2
   3  23   1    -7.2    21.3   2
   3  23   2    -9.5    20.4   2
   3  23   3    42.5    33.4   2
   3  23   4    -9.8    22.1   2
   3  23   5    -8.7    21.1   2
   3  23   6    39.9    27.9   2
   3  23   7   215.3    26.9   2
   3  23   8   240.0    28.7   2
   3  23   9    37.2    30.9   2
   3  23  10   797.2    41.5   2
   3  23  11   129.0    42.9   2
   3  23  12  1719.4    63.3   2
   3  23  13   -46.3    53.0   2
   3  23  14    11.9    60.9   2
   3  23  15  -203.4    73.6   2
   3  23  16   -45.7    85.4   2
   3  23  18  1003.3    98.5   2
   3  24 -20   150.5    73.2   2
   3  24 -19   885.4    65.4   2
   3  24 -17    13.2    45.7   2
   3  24 -16    72.0    40.2   2
   3  24 -14     6.2    29.9   2
   3  24 -13   -23.1    27.2   2
   3  24 -11   -64.8    23.0   2
   3  24 -10   716.6    24.9   2
   3  24  -8   619.5    22.2   2
   3  24  -7    19.8    18.2   2
   3  24  -5   442.1    22.4   2
   3  24  -4   557.7    23.2   2
   3  24  -2   612.4    25.1   2
   3  24  -1   228.1    27.9   2
   3  24   1    79.9    19.9   2
   3  24   2   954.9    30.5   2
   3  24   4   658.5    29.7   2
   3  24   5   234.0    23.3   2
   3  24   7   279.3    31.4   2
   3  24   8   -45.2    31.7   2
   3  24  10   -39.4    33.9   2
   3  24  11   382.3    42.1   2
   3  24  13   373.6    61.2   2
   3  24  14    83.3    70.8   2
   3  24  16  -182.9   109.3   2
   3  24  17   -87.6    84.5   2
   3  25 -19   243.0    71.1   2
   3  25 -18  -150.9    61.0   2
   3  25 -17   134.0    53.9   2
   3  25 -16   105.6    46.4   2
   3  25 -15    40.5    39.4   2
   3  25 -13   -18.2    30.6   2
   3  25 -12    36.1    28.2   2
   3  25 -11  1404.3    36.7   2
   3  25 -10   541.4    26.8   2
   3  25  -9   -10.9    22.3   2
   3  25  -8   124.7    21.1   2
   3  25  -7   513.8    24.9   2
   3  25  -5   269.6    24.1   2
   3  25  -4   521.5    25.1   2
   3  25  -2    98.6    23.6   2
   3  25  -1   812.0    32.3   2
   3  25   1   363.5    24.0   2
   3  25   2   -69.0    25.4   2
   3  25   4   -32.7    27.8   2
   3  25   5    80.8    26.9   2
   3  25   6    35.7    34.3   2
   3  25   7    33.0    35.1   2
   3  25   8   669.0    43.7   2
   3  25   9   411.2    40.3   2
   3  25  10   904.2    44.1   2
   3  25  11  1573.1    66.6   2
   3  25  12   -39.9    64.7   2
   3  25  13   -20.7    73.8   2
   3  25  14   283.9    83.5   2
   3  25  15  -206.8    98.8   2
   3  25  16  -132.5   116.3   2
   3  25  17  -154.2   140.7   2
   3  26 -19   -37.7    81.9   2
   3  26 -18    68.2    72.7   2
   3  26 -17   -42.1    62.1   2
   3  26 -16   -20.9    52.7   2
   3  26 -15    18.7    44.5   2
   3  26 -14   757.8    44.1   2
   3  26 -13   391.1    39.9   2
   3  26 -12    32.7    33.5   2
   3  26 -11   320.1    31.7   2
   3  26 -10   730.8    31.8   2
   3  26  -9   796.6    27.7   2
   3  26  -8   202.9    24.7   2
   3  26  -7   -25.6    25.5   2
   3  26  -5   -43.3    26.1   2
   3  26  -4   118.6    24.9   2
   3  26  -2    50.0    24.9   2
   3  26  -1   209.9    53.5   2
   3  26   1   285.9    29.7   2
   3  26   2   911.8    36.3   2
   3  26   4    76.6    32.7   2
   3  26   5   907.5    35.7   2
   3  26   6   375.2    38.4   2
   3  26   7   119.7    40.6   2
   3  26   8   -85.6    42.7   2
   3  26   9   379.5    49.0   2
   3  26  10    70.2    47.3   2
   3  26  11   101.0    49.2   2
   3  26  12   314.0    55.3   2
   3  26  13   363.0    88.6   2
   3  26  14   416.4    96.0   2
   3  26  15  -115.7   115.3   2
   3  26  16   138.7   144.2   2
   3  27 -17   889.1    75.9   2
   3  27 -16  -181.3    68.9   2
   3  27 -14    68.3    46.6   2
   3  27 -13    59.2    37.1   2
   3  27 -11    37.1    34.3   2
   3  27 -10  1368.2    41.1   2
   3  27  -8    -7.7    27.5   2
   3  27  -7   415.0    32.6   2
   3  27  -5    30.2    30.0   2
   3  27  -4   -44.3    26.4   2
   3  27  -2   239.4    29.5   2
   3  27  -1   312.8    32.4   2
   3  27   1  1398.2    38.5   2
   3  27   2    19.7    30.8   2
   3  27   4    -6.3    37.0   2
   3  27   5   -25.0    32.6   2
   3  27   7   444.1    75.8   2
   3  27   8  -153.0    51.2   2
   3  27  10   121.1    58.8   2
   3  27  11   -94.4    54.0   2
   3  27  13    -8.2    90.7   2
   3  27  14     3.8   110.1   2
   3  27  16   159.9   166.1   2
   3  28 -17   490.7    88.0   2
   3  28 -16  -185.2    69.0   2
   3  28 -15    49.1    60.4   2
   3  28 -14  -160.1    67.1   2
   3  28 -13   136.2    49.9   2
   3  28 -12   479.2    47.2   2
   3  28 -11   616.8    43.2   2
   3  28 -10   728.6    41.3   2
   3  28  -9   -53.4    34.5   2
   3  28  -8   325.3    33.0   2
   3  28  -7   -57.0    39.2   2
   3  28  -6    63.9    37.1   2
   3  28  -5   -44.8    35.3   2
   3  28  -4    -2.4    27.9   2
   3  28  -2   197.1    41.0   2
   3  28  -1    23.2    36.0   2
   3  28   1   426.4    42.1   2
   3  28   2   -71.5    35.9   2
   3  28   4    64.2    43.5   2
   3  28   5   495.1    49.6   2
   3  28   6   -12.9    40.4   2
   3  28   7   -51.6    54.6   2
   3  28   8  1912.3    78.5   2
   3  28   9   178.5    84.5   2
   3  28  10  -131.4    67.4   2
   3  28  11   -47.6    74.5   2
   3  28  12   -52.7    66.6   2
   3  28  13  -183.8    79.6   2
   3  28  15  -127.7   153.0   2
   3  29 -16   224.0    82.5   2
   3  29 -15   392.6    73.3   2
   3  29 -14   669.5    59.8   2
   3  29 -13   190.4    83.7   2
   3  29 -12   -57.2    54.5   2
   3  29 -11  1494.6    58.1   2
   3  29 -10   129.3    39.1   2
   3  29  -9   144.9    41.3   2
   3  29  -8    42.5    36.6   2
   3  29  -7   840.0    51.5   2
   3  29  -6   105.2    43.9   2
   3  29  -5   -49.9    39.7   2
   3  29  -4    89.7    34.2   2
   3  29  -2   186.7    70.3   2
   3  29  -1    -5.9    41.0   2
   3  29   1   705.4    41.0   2
   3  29   2   177.2    43.5   2
   3  29   4   982.5    58.6   2
   3  29   5   -86.9    50.3   2
   3  29   6   457.2    46.3   2
   3  29   7    76.9    46.8   2
   3  29   8    84.2    69.4   2
   3  29   9   356.3   105.0   2
   3  29  10    73.3    82.5   2
   3  29  11   243.3    89.3   2
   3  29  12   216.9    80.5   2
   3  29  14  -180.7   151.6   2
   3  30 -14    49.4    78.5   2
   3  30 -13    34.5    71.1   2
   3  30 -11   -39.0    56.6   2
   3  30 -10   154.4    44.2   2
   3  30  -8   148.0    52.6   2
   3  30  -7   749.5    60.7   2
   3  30  -5   605.6    40.5   2
   3  30  -4   114.9    38.8   2
   3  30  -2  3597.4   115.9   2
   3  30  -1   126.7    46.0   2
   3  30   1   122.5    41.6   2
   3  30   2   276.8    50.5   2
   3  30   4  1635.9    75.1   2
   3  30   5   -88.9    61.5   2
   3  30   7   736.3    60.9   2
   3  30  11   751.6   115.6   2
   3  30  13    31.8   107.0   2
   3  31 -14   509.7   110.1   2
   3  31 -13   228.2    84.2   2
   3  31 -12   -44.1    75.3   2
   3  31 -11  -146.5    66.0   2
   3  31 -10   287.1    63.0   2
   3  31  -8   318.6    53.9   2
   3  31  -7   407.8    56.1   2
   3  31  -6    10.4    53.6   2
   3  31  -5    27.7    43.8   2
   3  31  -4   -65.2    86.4   2
   3  31  -1   213.8    56.5   2
   3  31   1   380.2    46.1   2
   3  31   2    49.2    45.1   2
   3  31   4   -93.6    67.2   2
   3  31   5   -98.4    70.4   2
   3  31   6   407.2    74.6   2
   3  31   7   242.6    65.1   2
   3  31   8   -71.6    93.0   2
   3  31   9    -7.9   112.1   2
   3  31  10  -247.4   125.1   2
   3  31  11  -208.5   132.6   2
   3  31  12    56.5   148.2   2
   3  32 -13    -1.0   101.7   2
   3  32 -12  -161.6    88.6   2
   3  32 -11   123.5    68.4   2
   3  32 -10   368.3    71.6   2
   3  32  -8    36.5    65.1   2
   3  32  -7   549.6    71.4   2
   3  32  -6   940.1    69.3   2
   3  32  -5    97.1    50.8   2
   3  32  -4  2332.9    71.8   2
   3  32  -2    39.7    67.5   2
   3  32  -1   266.4    70.1   2
   3  32   1   -74.2    53.9   2
   3  32   2  -129.3    54.2   2
   3  32   4   289.2    82.2   2
   3  32   5   140.7    86.9   2
   3  32   6   107.1    87.1   2
   3  32   7  1727.1    89.9   2
   3  32   8  -196.9   119.2   2
   3  32   9  -211.1   129.0   2
   3  32  10  -412.2   145.6   2
   3  32  11   864.4   165.2   2
   3  33 -11   416.8    92.3   2
   3  33 -10   876.3    87.3   2
   3  33  -8   115.0    75.0   2
   3  33  -7    14.9    80.3   2
   3  33  -5   371.2    60.3   2
   3  33  -2   214.7    80.3   2
   3  33  -1  1488.7    93.5   2
   3  33   1  -103.3    61.5   2
   3  33   2    32.9    62.8   2
   3  33   4   -87.5    98.9   2
   3  33   5    12.3   104.9   2
   3  33   7   -53.9    87.5   2
   3  33   8    30.4    95.8   2
   3  34 -11   -20.1   111.4   2
   3  34 -10   116.9    86.4   2
   3  34  -9    85.5    87.9   2
   3  34  -8  -236.2    90.2   2
   3  34  -7   336.4    96.4   2
   3  34  -5   375.7    71.6   2
   3  34  -4   267.4    74.5   2
   3  34  -2   898.2   104.7   2
   3  34   1   -12.8    71.5   2
   3  34   2   725.4    78.2   2
   3  34   3   666.9   162.7   2
   3  34   4    99.4   117.2   2
   3  34   5    22.9   125.5   2
   3  34   7   367.0   110.7   2
   3  34   8    61.9   113.5   2
   3  35  -9  -144.5   136.5   2
   3  35  -8   388.6   110.6   2
   3  35  -7    86.5   120.3   2
   3  35  -5   177.5    86.1   2
   3  35  -4   908.4    92.6   2
   3  35  -2   260.5   121.0   2
   3  35   1   236.6   116.7   2
   3  35   2    47.0    90.6   2
   3  35   4   135.6   140.2   2
   3  35   5   -74.7   145.6   2
   3  36  -5   494.3   108.1   2
   3  36  -4    36.7   101.3   2
   3  36  -2   -62.9   145.8   2
   3  36  -1    32.5   143.6   2
   3  36   1  1350.3   118.0   2
   3  36   2   145.0   105.8   2
   3  36   4   -46.1   169.9   2
   4   0 -11    14.7    12.5   2
   4   0  -1    10.3     2.4   2
   4   0   9    16.2    12.5   2
   4   0  15     0.0    19.8   2
   4   0  17   -10.7    28.2   2
   4   0  19   435.8    46.3   2
   4   0  21    73.1    69.8   2
   4   1 -26   167.1    73.6   2
   4   1 -25   240.0    56.0   2
   4   1 -24   -52.6    44.5   2
   4   1 -23   -63.0    35.5   2
   4   1 -22   261.6    29.7   2
   4   1 -21   -74.1    23.2   2
   4   1 -20   -39.4    19.5   2
   4   1 -19    19.4    17.2   2
   4   1 -18   302.9    16.1   2
   4   1 -17    -8.0    14.4   2
   4   1 -16  3276.8    37.4   2
   4   1 -15  1378.5    22.9   2
   4   1 -14   351.2    15.1   2
   4   1 -13     9.9    12.6   2
   4   1 -12    75.9    10.8   2
   4   1 -11    16.2     9.5   2
   4   1 -10    33.8     8.9   2
   4   1  -9    13.7     8.1   2
   4   1  -8   563.9    13.6   2
   4   1  -7   556.3    12.8   2
   4   1  -3   553.6    10.2   2
   4   1  -2    55.2     2.4   2
   4   1  -1   246.8     3.9   2
   4   1   0    50.1     2.3   2
   4   1   1    29.2     2.2   2
   4   1   2    12.3     2.6   2
   4   1   3   508.6    11.7   2
   4   1   4   349.5     8.0   2
   4   1   5  3971.4    62.8   2
   4   1   6   375.0     9.4   2
   4   1   7   429.1    11.2   2
   4   1   8    94.3     9.3   2
   4   1   9     8.2     8.9   2
   4   1  10   352.2    12.1   2
   4   1  11   125.4    10.6   2
   4   1  12   556.2    13.0   2
   4   1  13   164.7    10.9   2
   4   1  14   163.1    11.6   2
   4   1  15  1709.6    22.2   2
   4   1  16   270.6    16.2   2
   4   1  17   860.9    24.6   2
   4   1  18    62.3    24.5   2
   4   1  19     8.9    29.8   2
   4   1  20  -105.9    37.4   2
   4   1  21    72.2    48.8   2
   4   1  22   -96.0    63.9   2
   4   1  23   111.2    83.3   2
   4   2 -25   648.9    57.3   2
   4   2 -23   -48.1    33.6   2
   4   2 -21   495.4    24.8   2
   4   2 -19   660.9    19.7   2
   4   2 -17   423.5    17.6   2
   4   2 -15  1316.9    27.2   2
   4   2 -13   180.5    12.0   2
   4   2 -11  1421.4    27.0   2
   4   2  -9    26.9     8.5   2
   4   2  -3   283.8     9.1   2
   4   2   1   112.5     3.1   2
   4   2   3  2707.1    37.0   2
   4   2   5   204.3     6.7   2
   4   2   7    50.1     7.5   2
   4   2   9    14.0     9.1   2
   4   2  11  1605.4    21.9   2
   4   2  13   105.7    11.0   2
   4   2  15   450.4    14.2   2
   4   2  17   157.7    17.5   2
   4   2  19   -27.4    24.8   2
   4   2  21   852.5    47.4   2
   4   2  23   187.3    72.6   2
   4   3 -26  -143.9    76.3   2
   4   3 -25   -28.0    60.0   2
   4   3 -24   -24.6    46.2   2
   4   3 -23   121.0    37.5   2
   4   3 -22     9.2    30.2   2
   4   3 -21    52.6    24.9   2
   4   3 -20   937.3    25.9   2
   4   3 -19  1062.3    24.0   2
   4   3 -18  1694.1    26.4   2
   4   3 -17   806.8    20.8   2
   4   3 -16    15.7    13.7   2
   4   3 -15    28.4    14.5   2
   4   3 -14   137.3    13.9   2
   4   3 -13  1573.6    23.4   2
   4   3 -12  1560.5    28.3   2
   4   3 -11   145.0    11.3   2
   4   3 -10   565.6    17.8   2
   4   3  -9   728.3    17.2   2
   4   3  -8    67.5     7.1   2
   4   3  -7    61.0     6.4   2
   4   3  -6   102.0     5.1   2
   4   3  -5   323.0     9.9   2
   4   3  -4   728.8    15.8   2
   4   3  -3    12.0     2.5   2
   4   3  -2    84.5     3.0   2
   4   3   0  2134.9    41.5   2
   4   3   1   200.5     3.9   2
   4   3   2   316.3     6.0   2
   4   3   3    35.6     3.8   2
   4   3   4    33.0     6.0   2
   4   3   5    57.0     6.8   2
   4   3   6  2146.5    28.0   2
   4   3   7    66.3     7.9   2
   4   3   8     2.8     8.2   2
   4   3   9   982.1    19.1   2
   4   3  10   121.7     9.8   2
   4   3  11     9.4     9.7   2
   4   3  12    32.1    10.6   2
   4   3  13   265.0    10.9   2
   4   3  14   174.6    11.5   2
   4   3  15    58.5    12.5   2
   4   3  16  1159.2    20.8   2
   4   3  17   321.3    18.6   2
   4   3  18    -6.5    20.4   2
   4   3  19    42.7    25.7   2
   4   3  20   970.0    36.5   2
   4   3  21   170.1    40.2   2
   4   3  22   116.6    51.4   2
   4   3  23   133.3    72.8   2
   4   4 -23   444.7    56.6   2
   4   4 -13   540.9    21.0   2
   4   4 -11   286.8    19.6   2
   4   4  -9  1363.7    24.2   2
   4   4  -7  1863.7    38.1   2
   4   4  -5  1407.1    24.0   2
   4   4  -3    12.1     2.4   2
   4   4   1   912.4    10.4   2
   4   4   3   913.5    15.6   2
   4   4   5   364.8     9.2   2
   4   4   7   266.6    10.1   2
   4   4   9    62.2     8.8   2
   4   4  11   113.0    10.2   2
   4   4  15  1089.5    26.2   2
   4   4  17   636.8    25.0   2
   4   4  21   359.9    43.2   2
   4   5 -26     2.8    82.8   2
   4   5 -25   523.6    66.9   2
   4   5 -24   150.8    50.8   2
   4   5 -23   180.4    40.8   2
   4   5 -22    32.2    42.2   2
   4   5 -21   709.2    27.5   2
   4   5 -20   200.6    20.7   2
   4   5 -19  1973.4    30.9   2
   4   5 -18    91.9    16.2   2
   4   5 -17     4.1    14.8   2
   4   5 -16    46.3    14.5   2
   4   5 -15   282.0    15.4   2
   4   5 -14  1112.4    22.1   2
   4   5 -13    55.1    14.7   2
   4   5 -12  2533.9    41.1   2
   4   5 -11  1158.8    21.7   2
   4   5 -10   200.8     9.7   2
   4   5  -8    29.1     7.1   2
   4   5  -7     6.7     5.9   2
   4   5  -6   857.7    22.1   2
   4   5  -5   915.9    18.6   2
   4   5  -3   481.3     7.1   2
   4   5  -2    25.4     2.2   2
   4   5  -1   622.9     9.9   2
   4   5   0   147.2     4.5   2
   4   5   1  1189.2    16.1   2
   4   5   2    47.5     3.7   2
   4   5   3  1505.1    21.0   2
   4   5   4   127.9     5.4   2
   4   5   5    83.7     5.3   2
   4   5   6  1089.3    14.8   2
   4   5   7  1255.0    17.9   2
   4   5   8  1264.9    18.6   2
   4   5   9   561.5    12.1   2
   4   5  10  2593.3    28.8   2
   4   5  11    57.6    11.0   2
   4   5  12   833.2    16.6   2
   4   5  13   613.4    16.1   2
   4   5  14    29.3    13.6   2
   4   5  15    88.6    13.6   2
   4   5  16  1221.7    23.1   2
   4   5  17   470.1    20.0   2
   4   5  18   463.0    23.8   2
   4   5  19    -8.7    26.5   2
   4   5  20   479.5    35.0   2
   4   5  21   902.1    47.3   2
   4   5  22    35.8    52.7   2
   4   5  23    85.9    71.5   2
   4   6 -25  -124.7    65.4   2
   4   6 -23   219.0    37.1   2
   4   6 -21    43.7    26.5   2
   4   6 -19   319.1    19.7   2
   4   6 -17    73.9    14.2   2
   4   6 -15  1870.9    28.1   2
   4   6 -13  1537.0    24.8   2
   4   6 -11   341.2    14.4   2
   4   6  -9    53.4    10.8   2
   4   6  -7  2681.7    48.8   2
   4   6  -5  2003.6    41.7   2
   4   6  -3  1309.8    23.3   2
   4   6  -1  1401.4    15.0   2
   4   6   1   569.1     8.2   2
   4   6   3    26.4     4.6   2
   4   6   5   329.2     8.1   2
   4   6   7    88.2     7.3   2
   4   6   9   706.6    13.6   2
   4   6  11   782.7    16.9   2
   4   6  13   767.3    16.3   2
   4   6  15    38.3    16.7   2
   4   6  17   298.0    23.2   2
   4   6  19    39.2    33.3   2
   4   6  21  1044.8    54.0   2
   4   6  23  1004.1    84.4   2
   4   7 -26   -99.6    75.7   2
   4   7 -25    44.1    59.0   2
   4   7 -24  -108.1    46.6   2
   4   7 -23    78.2    41.8   2
   4   7 -22   391.3    35.5   2
   4   7 -21   499.4    29.4   2
   4   7 -20    76.4    22.7   2
   4   7 -19    -0.4    18.6   2
   4   7 -18    47.7    16.3   2
   4   7 -17   114.2    14.2   2
   4   7 -16  1399.6    23.9   2
   4   7 -15   163.7    16.2   2
   4   7 -14  2814.8    40.4   2
   4   7 -13   319.6    14.4   2
   4   7 -12   356.7    13.5   2
   4   7 -11  2689.2    42.2   2
   4   7 -10  2029.6    27.5   2
   4   7  -9   579.4    13.8   2
   4   7  -8   734.8    14.3   2
   4   7  -7     5.3     6.9   2
   4   7  -6   104.2     6.5   2
   4   7  -5  1001.9    16.5   2
   4   7  -4  1144.7    17.6   2
   4   7  -3    16.1     4.5   2
   4   7  -2     8.3     5.0   2
   4   7  -1   975.6    11.5   2
   4   7   0   274.8     6.4   2
   4   7   1   824.5    10.6   2
   4   7   2  2067.9    31.0   2
   4   7   3    27.4     4.6   2
   4   7   4    33.3     5.6   2
   4   7   5    70.5     6.9   2
   4   7   6   414.9    10.9   2
   4   7   7   122.6     8.3   2
   4   7   8   257.3    10.5   2
   4   7   9  2499.8    30.2   2
   4   7  10  3386.9    41.2   2
   4   7  11   477.0    16.4   2
   4   7  12   489.1    16.6   2
   4   7  13    18.7    13.7   2
   4   7  14    32.1    14.7   2
   4   7  15    36.6    17.3   2
   4   7  16  1435.6    31.1   2
   4   7  17    43.3    26.0   2
   4   7  18  1834.0    45.3   2
   4   7  19   752.9    44.3   2
   4   7  20  2305.8    68.6   2
   4   7  21    78.6    65.8   2
   4   8 -23    14.1    42.8   2
   4   8 -21   742.6    32.3   2
   4   8 -19  1542.6    32.1   2
   4   8 -17   921.7    19.3   2
   4   8 -15  1256.6    23.7   2
   4   8 -13     7.0    12.4   2
   4   8 -11  3764.5    49.7   2
   4   8  -9    29.0     8.6   2
   4   8  -7    79.5     7.3   2
   4   8  -5    82.7     5.3   2
   4   8  -3   772.7    11.7   2
   4   8  -1    40.3     3.6   2
   4   8   1   304.9     6.7   2
   4   8   3    25.9     5.6   2
   4   8   5   358.4    10.0   2
   4   8   7   217.2     9.7   2
   4   8   9    89.8    11.6   2
   4   8  11  1277.3    23.3   2
   4   8  13   876.0    19.5   2
   4   8  15   144.6    19.0   2
   4   8  17   128.4    32.5   2
   4   8  19  2165.6    87.0   2
   4   8  21   981.2    77.6   2
   4   9 -24  -108.8    55.8   2
   4   9 -23   376.2    41.8   2
   4   9 -22   228.1    33.9   2
   4   9 -21   253.3    28.2   2
   4   9 -20   429.7    24.7   2
   4   9 -19  1184.0    26.0   2
   4   9 -18   516.3    19.3   2
   4   9 -17   439.6    25.6   2
   4   9 -16   107.1    14.2   2
   4   9 -15   497.2    15.5   2
   4   9 -14   895.1    20.4   2
   4   9 -12   437.3    13.4   2
   4   9 -11    79.8    10.0   2
   4   9 -10  4944.2    63.5   2
   4   9  -9  2339.5    35.2   2
   4   9  -8   825.6    14.5   2
   4   9  -7  2572.7    31.6   2
   4   9  -6   101.6     6.4   2
   4   9  -5   606.0    12.5   2
   4   9  -4  1693.8    29.0   2
   4   9  -3  1323.0    20.7   2
   4   9  -2   718.7    13.5   2
   4   9  -1  1019.5    13.8   2
   4   9   0   262.3     7.9   2
   4   9   1   827.8    11.6   2
   4   9   2  1190.8    15.2   2
   4   9   3   195.6     7.9   2
   4   9   4   148.9     8.1   2
   4   9   5    36.7     8.5   2
   4   9   6   119.6     9.3   2
   4   9   7    43.8    10.4   2
   4   9   8    57.5     9.7   2
   4   9   9    67.4    14.5   2
   4   9  10   355.7    13.9   2
   4   9  11   257.1    15.4   2
   4   9  12   528.9    17.1   2
   4   9  13   107.0    20.2   2
   4   9  14   602.6    20.6   2
   4   9  15   400.0    21.9   2
   4   9  16     5.5    20.7   2
   4   9  17   301.3    30.5   2
   4   9  18    62.8    30.9   2
   4   9  19   204.9    39.4   2
   4   9  20   -87.5    47.0   2
   4   9  21   362.2    75.2   2
   4   9  22   248.4    96.7   2
   4  10 -25  -114.8    68.9   2
   4  10 -23  -114.3    42.6   2
   4  10 -21   169.8    29.3   2
   4  10 -19   519.3    22.4   2
   4  10 -17    32.1    16.2   2
   4  10 -15   252.7    14.2   2
   4  10 -13  1337.6    20.3   2
   4  10 -11   228.2    11.8   2
   4  10  -9  2339.7    27.2   2
   4  10  -7  2175.9    30.5   2
   4  10  -5  1701.4    27.7   2
   4  10  -3   179.8     7.2   2
   4  10  -1  3467.5    42.5   2
   4  10   1   169.9     6.2   2
   4  10   3   134.0     7.9   2
   4  10   5   311.4    12.2   2
   4  10   7   202.0    12.4   2
   4  10   9   373.5    14.5   2
   4  10  11   126.0    16.0   2
   4  10  13     9.8    16.8   2
   4  10  15   243.8    22.2   2
   4  10  17   750.4    31.6   2
   4  10  19    -8.2    40.3   2
   4  10  21   403.1    65.6   2
   4  11 -25    95.4    73.2   2
   4  11 -24  -107.5    58.0   2
   4  11 -22    66.4    38.0   2
   4  11 -21   921.5    36.1   2
   4  11 -20    59.4    28.6   2
   4  11 -18   107.0    19.0   2
   4  11 -17    33.1    16.3   2
   4  11 -16   -38.6    14.4   2
   4  11 -14   461.5    15.9   2
   4  11 -13  1441.6    22.6   2
   4  11 -12   171.9    11.3   2
   4  11 -11  3217.7    54.1   2
   4  11 -10  1765.1    24.4   2
   4  11  -9   217.9    10.3   2
   4  11  -8   120.5     9.1   2
   4  11  -7  1453.3    22.8   2
   4  11  -6  1040.0    19.5   2
   4  11  -5    56.0     7.5   2
   4  11  -4   283.4     9.3   2
   4  11  -3   180.8     8.5   2
   4  11  -2   114.0     5.9   2
   4  11  -1  1458.2    20.5   2
   4  11   0   280.1    10.6   2
   4  11   1     6.3     6.4   2
   4  11   2  1102.1    13.6   2
   4  11   3    55.6     9.1   2
   4  11   4   479.7    15.7   2
   4  11   5   224.8    12.9   2
   4  11   6    16.1     9.8   2
   4  11   7    39.3    13.3   2
   4  11   8   348.0    16.9   2
   4  11   9   187.3    17.2   2
   4  11  10   566.3    18.8   2
   4  11  11   897.2    33.9   2
   4  11  12   211.5    19.2   2
   4  11  13   206.1    21.2   2
   4  11  14   535.4    24.0   2
   4  11  15  1410.9    40.0   2
   4  11  16   -61.7    27.1   2
   4  11  17   -57.6    33.8   2
   4  11  18   499.4    33.7   2
   4  11  19  1572.7    69.2   2
   4  11  20   -56.8    53.7   2
   4  11  21  1593.7    80.2   2
   4  11  22   -73.7    88.9   2
   4  12 -25  -131.2    79.8   2
   4  12 -23   230.9    57.9   2
   4  12 -21    58.8    36.7   2
   4  12 -19    61.4    23.0   2
   4  12 -17   894.1    22.7   2
   4  12 -15  1830.2    23.8   2
   4  12 -13  3023.2    34.0   2
   4  12 -11  1858.7    24.0   2
   4  12  -9    41.6     9.6   2
   4  12  -7   349.3    12.1   2
   4  12  -5    20.5     7.9   2
   4  12  -3   902.9    17.0   2
   4  12  -1   365.7    10.7   2
   4  12   1    49.7     8.0   2
   4  12   3   378.6    13.5   2
   4  12   5   432.9    15.1   2
   4  12   7   189.7    14.1   2
   4  12   9   239.9    17.6   2
   4  12  11   249.4    18.9   2
   4  12  13    16.2    22.4   2
   4  12  15   281.9    32.6   2
   4  12  19   172.6    42.4   2
   4  12  21    67.7    74.2   2
   4  13 -25   362.6   101.9   2
   4  13 -24   167.5    79.2   2
   4  13 -23   453.0    64.6   2
   4  13 -22     2.4    50.8   2
   4  13 -21   129.5    43.5   2
   4  13 -20    -2.7    29.4   2
   4  13 -19   -40.9    26.2   2
   4  13 -18   203.7    23.0   2
   4  13 -16   -35.7    15.5   2
   4  13 -15   -11.0    14.1   2
   4  13 -14   490.0    15.1   2
   4  13 -12    77.0    13.2   2
   4  13 -11    41.8    12.4   2
   4  13 -10   139.1    12.6   2
   4  13  -9    43.3    11.0   2
   4  13  -8   439.3    16.1   2
   4  13  -7   595.3    13.9   2
   4  13  -6  1022.6    16.5   2
   4  13  -5   222.6    11.0   2
   4  13  -3    19.7     7.9   2
   4  13  -2   212.9     9.1   2
   4  13  -1   232.7    11.2   2
   4  13   1  1619.7    20.9   2
   4  13   2   206.2    10.3   2
   4  13   3  1131.6    23.2   2
   4  13   4     4.8    11.3   2
   4  13   5   357.3    13.6   2
   4  13   6  1713.5    29.8   2
   4  13   7  1313.1    29.1   2
   4  13   8   665.8    19.8   2
   4  13   9  1211.9    31.1   2
   4  13  10   133.9    20.4   2
   4  13  11   197.1    22.9   2
   4  13  12    -6.5    20.7   2
   4  13  14    51.5    28.6   2
   4  13  15   -59.3    34.1   2
   4  13  16   819.7    42.1   2
   4  13  17   -32.2    43.6   2
   4  13  18   296.0    42.3   2
   4  13  19   586.0    53.4   2
   4  13  20    94.9    55.8   2
   4  13  21   137.6    68.3   2
   4  14 -23   252.4    69.0   2
   4  14 -21    50.4    37.4   2
   4  14 -19    41.2    28.5   2
   4  14 -17   415.9    20.5   2
   4  14 -15    96.6    15.2   2
   4  14 -13   219.0    14.2   2
   4  14 -11    -0.7    15.2   2
   4  14  -9  1700.4    26.2   2
   4  14  -7   696.5    15.6   2
   4  14  -5    78.5    10.1   2
   4  14  -3   154.2     9.9   2
   4  14  -1  4720.5    50.9   2
   4  14   1    82.8     9.6   2
   4  14   3   917.6    17.2   2
   4  14   5   116.5    12.9   2
   4  14   7  1630.8    43.9   2
   4  14   9   190.6    19.8   2
   4  14  11   325.1    22.4   2
   4  14  13    83.4    26.1   2
   4  14  15  2125.7    57.6   2
   4  14  17   -97.4    41.8   2
   4  14  19   575.1    57.4   2
   4  14  21   289.1    76.6   2
   4  15 -24  -203.8    95.7   2
   4  15 -23   561.8    70.8   2
   4  15 -22    60.2    49.3   2
   4  15 -21    31.8    45.0   2
   4  15 -20    15.7    36.0   2
   4  15 -19   526.6    31.0   2
   4  15 -18    78.1    23.5   2
   4  15 -17   697.8    23.8   2
   4  15 -16    52.1    17.8   2
   4  15 -14   431.2    17.0   2
   4  15 -13    40.5    14.3   2
   4  15 -12   574.2    17.0   2
   4  15 -11   288.8    13.8   2
   4  15 -10    -6.5    12.7   2
   4  15  -9    66.5    11.9   2
   4  15  -8   301.7    17.5   2
   4  15  -7  3690.8    44.5   2
   4  15  -6   146.5    13.9   2
   4  15  -5  1223.3    18.2   2
   4  15  -3  3606.4    51.1   2
   4  15  -2   249.7    12.4   2
   4  15  -1    15.8     9.8   2
   4  15   1     2.8    10.7   2
   4  15   2   190.7    15.9   2
   4  15   3   241.8    11.2   2
   4  15   4   730.5    22.8   2
   4  15   5   725.7    24.1   2
   4  15   6    52.0    15.1   2
   4  15   7   254.1    21.4   2
   4  15   8   334.8    22.4   2
   4  15   9  1565.0    34.4   2
   4  15  10  1353.8    29.2   2
   4  15  11   972.2    48.7   2
   4  15  12   100.6    22.4   2
   4  15  13   563.6    26.0   2
   4  15  14   881.6    36.4   2
   4  15  16   164.3    44.5   2
   4  15  17   352.8    47.5   2
   4  15  18   947.4    70.6   2
   4  15  19  1333.1    86.0   2
   4  15  20   -63.5    73.6   2
   4  15  21   -38.4    79.7   2
   4  16 -23   -12.2    65.8   2
   4  16 -21   -30.8    48.4   2
   4  16 -19   -22.2    29.2   2
   4  16 -17  2125.8    38.0   2
   4  16 -15   335.5    16.5   2
   4  16 -13   210.0    15.2   2
   4  16 -11   343.2    15.2   2
   4  16  -9   403.3    16.7   2
   4  16  -7   259.3    13.6   2
   4  16  -5   195.6    11.5   2
   4  16  -3   352.8    12.8   2
   4  16  -1    18.9    11.3   2
   4  16   1   425.8    15.8   2
   4  16   3   222.2    14.3   2
   4  16   5    11.6    15.9   2
   4  16   7  1329.6    35.2   2
   4  16   9    77.6    22.0   2
   4  16  11   424.2    25.7   2
   4  16  13   682.2    30.4   2
   4  16  15    29.5    40.4   2
   4  16  17   -25.0    58.2   2
   4  16  19   755.2    83.4   2
   4  17 -23  -214.8    81.4   2
   4  17 -22   224.0    69.2   2
   4  17 -21   553.9    59.2   2
   4  17 -20   292.9    40.9   2
   4  17 -19    20.0    33.6   2
   4  17 -18   -17.9    27.6   2
   4  17 -16  1202.7    27.0   2
   4  17 -15   417.0    18.9   2
   4  17 -14   895.5    21.5   2
   4  17 -13   160.7    17.0   2
   4  17 -12   162.5    13.3   2
   4  17 -11    13.2    12.9   2
   4  17 -10   230.2    13.6   2
   4  17  -9   480.2    16.1   2
   4  17  -8   457.9    22.6   2
   4  17  -7  1093.7    21.7   2
   4  17  -6   622.5    15.8   2
   4  17  -5    28.6    11.3   2
   4  17  -3   764.0    17.5   2
   4  17  -2   221.6    16.8   2
   4  17  -1     2.3    13.0   2
   4  17   1     1.3    15.3   2
   4  17   2  1477.2    31.1   2
   4  17   3   212.6    16.8   2
   4  17   4     2.6    18.2   2
   4  17   5   992.9    27.8   2
   4  17   6   613.4    24.3   2
   4  17   7   240.4    19.2   2
   4  17   8   889.9    40.7   2
   4  17   9    40.1    22.1   2
   4  17  10   280.0    24.4   2
   4  17  11    55.7    25.5   2
   4  17  13    21.4    70.7   2
   4  17  14   653.9    36.4   2
   4  17  15   905.0    49.8   2
   4  17  16    -9.9    53.6   2
   4  17  17    56.5    67.1   2
   4  17  18  1936.6   129.5   2
   4  17  19   128.6    91.4   2
   4  17  20   373.6   117.3   2
   4  18 -23   366.1    79.0   2
   4  18 -21    17.4    51.6   2
   4  18 -19    85.7    36.4   2
   4  18 -17   265.1    27.2   2
   4  18 -15   955.2    28.9   2
   4  18 -13    19.4    14.7   2
   4  18  -9   152.8    15.8   2
   4  18  -7  1746.3    30.5   2
   4  18  -5   396.6    15.8   2
   4  18  -3  2276.0    34.4   2
   4  18  -1   307.4    16.2   2
   4  18   1    23.9    18.3   2
   4  18   3   635.0    23.6   2
   4  18   5   132.1    19.1   2
   4  18   7   177.9    22.6   2
   4  18  11   561.2    39.4   2
   4  18  13   -87.8    35.8   2
   4  18  15  -115.6    40.6   2
   4  18  17   147.4    74.8   2
   4  18  19  -250.5   116.0   2
   4  19 -22   631.1    75.2   2
   4  19 -21   327.3    64.8   2
   4  19 -20   -18.9    47.4   2
   4  19 -19   300.3    45.4   2
   4  19 -18    53.0    33.1   2
   4  19 -17    62.7    25.5   2
   4  19 -16   -41.0    25.5   2
   4  19 -15    59.3    21.2   2
   4  19 -14    91.3    17.6   2
   4  19 -13   140.0    16.3   2
   4  19 -12    23.3    14.7   2
   4  19 -11    39.3    15.2   2
   4  19 -10   668.1    17.6   2
   4  19  -9    -1.9    14.6   2
   4  19  -8   719.5    18.6   2
   4  19  -7     5.3    15.6   2
   4  19  -6   308.8    16.0   2
   4  19  -5   740.4    19.8   2
   4  19  -3    -8.7    15.7   2
   4  19  -2   116.4    23.5   2
   4  19  -1   780.9    21.1   2
   4  19   1  2168.4    42.4   2
   4  19   2  1548.3    34.5   2
   4  19   3   162.7    20.3   2
   4  19   4   930.1    53.6   2
   4  19   5    41.5    21.9   2
   4  19   6    37.6    25.2   2
   4  19   7   202.8    26.1   2
   4  19   8   299.7    31.1   2
   4  19   9   -55.2    21.5   2
   4  19  10     7.6    29.2   2
   4  19  11   320.7    45.0   2
   4  19  12   585.7    39.2   2
   4  19  13  1218.1    51.0   2
   4  19  14    -9.5    40.6   2
   4  19  16   687.2    56.3   2
   4  19  17   239.7    83.4   2
   4  19  18  1230.9   115.4   2
   4  20 -21    93.7    66.2   2
   4  20 -19  1004.6    49.6   2
   4  20 -17   503.6    29.7   2
   4  20 -15   988.3    27.9   2
   4  20 -13   298.4    18.7   2
   4  20 -11  1480.1    25.6   2
   4  20  -9   342.5    16.4   2
   4  20  -7   799.6    21.7   2
   4  20  -5  1244.5    29.0   2
   4  20  -3  3863.3    55.4   2
   4  20  -1   941.9    24.8   2
   4  20   1     9.1    20.9   2
   4  20   3  4719.1    73.5   2
   4  20   5   458.9    22.8   2
   4  20   7     2.7    23.9   2
   4  20   9   643.9    28.0   2
   4  20  11  1153.0    45.1   2
   4  20  13   524.8    48.9   2
   4  20  15   -40.2    51.9   2
   4  20  17   407.8    92.8   2
   4  20  19    96.3   149.1   2
   4  21 -22   -46.6    91.1   2
   4  21 -20   153.7    58.0   2
   4  21 -19   -55.4    48.0   2
   4  21 -18   345.2    37.8   2
   4  21 -16   136.5    27.9   2
   4  21 -15   290.9    25.5   2
   4  21 -14   240.1    22.7   2
   4  21 -13   205.5    24.9   2
   4  21 -12    55.6    16.7   2
   4  21 -11     9.5    17.5   2
   4  21 -10    63.9    17.6   2
   4  21  -9   189.2    17.9   2
   4  21  -8    19.3    15.8   2
   4  21  -7   173.7    19.0   2
   4  21  -6    22.6    19.3   2
   4  21  -5   906.7    28.3   2
   4  21  -3   -40.1    17.7   2
   4  21  -2   123.0    37.6   2
   4  21  -1    -5.4    19.5   2
   4  21   1   964.8    29.2   2
   4  21   2   932.8    34.5   2
   4  21   3   462.1    23.6   2
   4  21   5    32.7    22.7   2
   4  21   6   -34.1    23.7   2
   4  21   7   200.9    28.5   2
   4  21   8   109.6    28.4   2
   4  21   9   -50.1    26.0   2
   4  21  10  1562.4    40.2   2
   4  21  11   -33.3    37.4   2
   4  21  12    34.7    45.6   2
   4  21  13  1087.1    60.7   2
   4  21  14   582.6    74.4   2
   4  21  15   302.3    74.7   2
   4  21  16    67.0    88.9   2
   4  21  18   432.8   129.7   2
   4  22 -21  -145.7    95.8   2
   4  22 -19   157.5    46.8   2
   4  22 -17    18.1    34.7   2
   4  22 -15   -23.9    27.0   2
   4  22 -11    48.2    21.8   2
   4  22  -9    56.4    19.0   2
   4  22  -7     8.2    18.8   2
   4  22  -5    27.8    18.3   2
   4  22  -3  1095.2    29.0   2
   4  22  -1    -4.1    20.2   2
   4  22   1  1126.4    33.1   2
   4  22   3    17.8    21.3   2
   4  22   5   -26.9    20.9   2
   4  22   7   -51.1    27.3   2
   4  22  13   253.3    60.5   2
   4  22  17   -50.5    88.5   2
   4  23 -21   108.9    89.9   2
   4  23 -20    66.1    62.6   2
   4  23 -19   306.0    54.0   2
   4  23 -18   -49.6    56.1   2
   4  23 -17   690.8    43.4   2
   4  23 -16    25.4    34.4   2
   4  23 -15   -32.3    30.6   2
   4  23 -14   524.8    27.3   2
   4  23 -13   894.8    27.6   2
   4  23 -12   955.8    27.6   2
   4  23 -11   122.9    22.6   2
   4  23 -10   -22.0    22.2   2
   4  23  -9    12.5    32.8   2
   4  23  -8   615.6    28.8   2
   4  23  -7   322.2    23.3   2
   4  23  -6     0.7    20.9   2
   4  23  -5   222.4    21.6   2
   4  23  -3   -41.5    22.4   2
   4  23  -1   -22.7    20.4   2
   4  23   1   736.8    28.5   2
   4  23   2   212.5    23.8   2
   4  23   3   -20.0    24.5   2
   4  23   5  1321.5    35.9   2
   4  23   6   320.3    29.4   2
   4  23   7  1098.1    39.9   2
   4  23   9  1413.6    49.8   2
   4  23  10   -62.1    34.5   2
   4  23  12   337.8    56.2   2
   4  23  13   186.0    62.1   2
   4  23  14   281.5    77.4   2
   4  23  15   861.2    94.7   2
   4  23  16   -12.5   111.3   2
   4  23  17   414.2   101.1   2
   4  24 -19  -143.6    66.9   2
   4  24 -17   -82.8    44.6   2
   4  24 -15    58.7    34.9   2
   4  24 -13   716.2    31.7   2
   4  24 -11   825.8    30.7   2
   4  24  -9   211.1    25.2   2
   4  24  -7    66.3    24.3   2
   4  24  -5   189.9    24.0   2
   4  24  -3   -72.6    22.4   2
   4  24  -1  1067.5    31.2   2
   4  24   1  1873.3    38.0   2
   4  24   3   206.9    27.4   2
   4  24   5   925.0    34.4   2
   4  24   7   -69.6    33.9   2
   4  24   9   931.3    50.9   2
   4  24  11   103.4    45.3   2
   4  24  13   326.1    75.0   2
   4  24  15    22.8   100.4   2
   4  25 -19  1213.4    78.1   2
   4  25 -18  -134.0    71.6   2
   4  25 -17   -16.4    52.6   2
   4  25 -16   795.5    50.1   2
   4  25 -15   -22.2    35.3   2
   4  25 -14   772.8    35.9   2
   4  25 -13  1485.2    45.7   2
   4  25 -12   870.2    33.9   2
   4  25 -11   -54.6    29.8   2
   4  25 -10  1022.0    36.3   2
   4  25  -9   -18.9    24.8   2
   4  25  -8   653.9    31.8   2
   4  25  -7   -10.5    28.0   2
   4  25  -6   176.1    25.6   2
   4  25  -5   131.0    26.3   2
   4  25  -3    43.0    26.1   2
   4  25  -1   473.8    30.8   2
   4  25   1  1559.8    38.5   2
   4  25   2   449.0    30.2   2
   4  25   3   279.5    30.8   2
   4  25   5   769.3    34.6   2
   4  25   6  1893.2    54.1   2
   4  25   7   123.2    39.0   2
   4  25   8   154.9    48.6   2
   4  25   9  1290.9    59.3   2
   4  25  10   779.4    59.6   2
   4  25  11   646.3    54.4   2
   4  25  12   786.1   127.0   2
   4  25  13     7.7    83.3   2
   4  25  14   187.2    97.9   2
   4  25  15    96.8   115.4   2
   4  25  16   428.0   141.6   2
   4  26 -19   126.8   134.8   2
   4  26 -17    61.5    60.7   2
   4  26 -15   972.1    45.8   2
   4  26 -13    79.4    36.3   2
   4  26 -11   472.3    40.5   2
   4  26  -9    17.3    28.2   2
   4  26  -7    21.4    30.3   2
   4  26  -5  1287.3    41.8   2
   4  26  -3   694.7    33.5   2
   4  26  -1   191.3    29.0   2
   4  26   1    26.4    27.1   2
   4  26   3   520.0    36.8   2
   4  26   5   560.2    35.0   2
   4  26   7    75.7    45.3   2
   4  26   9   200.3    55.5   2
   4  27 -18   107.4    81.9   2
   4  27 -17  1351.5    80.7   2
   4  27 -15   960.4    57.4   2
   4  27 -14   -77.3    46.0   2
   4  27 -13   358.0    43.9   2
   4  27 -11   334.0    40.7   2
   4  27 -10    26.3    36.1   2
   4  27  -9     8.8    30.2   2
   4  27  -8    91.8    36.5   2
   4  27  -7   229.0    36.2   2
   4  27  -6   127.7    34.7   2
   4  27  -5   -77.4    33.5   2
   4  27  -3   459.1    35.9   2
   4  27  -1   -49.7    32.3   2
   4  27   1   211.8    29.8   2
   4  27   2   832.4    42.2   2
   4  27   3   -44.1    39.4   2
   4  27   5    12.1    35.1   2
   4  27   6   105.2    38.6   2
   4  27   7   100.2    50.9   2
   4  27   8   273.0    57.7   2
   4  27   9   349.5   120.5   2
   4  27  10  -122.7    69.8   2
   4  27  11   253.2    63.4   2
   4  27  12   219.9    69.7   2
   4  27  13  -135.7   108.4   2
   4  27  14  -160.7   130.5   2
   4  27  15     5.2   160.3   2
   4  28 -17  -102.0    82.4   2
   4  28 -15    -7.7    59.8   2
   4  28 -13   -88.7    50.3   2
   4  28 -11    62.6    46.5   2
   4  28  -9   153.3    38.2   2
   4  28  -7   646.3    44.8   2
   4  28  -5   -98.6    39.5   2
   4  28  -3   -45.0    37.3   2
   4  28  -1   320.8    39.4   2
   4  28   1   697.1    37.9   2
   4  28   3   -68.0    42.8   2
   4  28   5   -54.3    46.9   2
   4  28   7   -31.5    60.5   2
   4  28   9   334.4    73.4   2
   4  28  11  -147.9    88.6   2
   4  28  13   424.0    91.4   2
   4  29 -17  1743.1   114.8   2
   4  29 -16   -54.7    79.7   2
   4  29 -15   399.2    72.3   2
   4  29 -14    67.3    64.7   2
   4  29 -13   914.7    65.9   2
   4  29 -12   731.9    58.8   2
   4  29 -11   285.5    56.1   2
   4  29 -10     5.2    43.9   2
   4  29  -9   387.3    42.7   2
   4  29  -8   298.5    52.5   2
   4  29  -7    41.8    49.2   2
   4  29  -6   252.6    46.6   2
   4  29  -5   -92.4    37.9   2
   4  29  -3   -18.8    44.2   2
   4  29  -1   -12.7    43.5   2
   4  29   1   634.6    42.6   2
   4  29   2   345.7    50.5   2
   4  29   3    10.1    51.2   2
   4  29   5   133.0    55.0   2
   4  29   6   407.9    52.4   2
   4  29   7  -190.4    68.9   2
   4  29   8    28.7    76.2   2
   4  29   9  2257.4   109.7   2
   4  29  10    48.0    91.0   2
   4  29  11    89.0   104.4   2
   4  29  12    -9.8    93.6   2
   4  30 -15     9.8    74.6   2
   4  30 -13    67.4    72.3   2
   4  30 -11   -57.4    65.5   2
   4  30  -9   273.1    46.9   2
   4  30  -7   191.0    56.7   2
   4  30  -5   -30.7    42.9   2
   4  30  -3    23.3    50.4   2
   4  30  -1    -9.0    51.8   2
   4  30   1   -31.3    42.9   2
   4  30   3   587.8    62.8   2
   4  30   5   -38.3    66.0   2
   4  30   7   359.3    63.1   2
   4  30   9  -108.8   100.5   2
   4  30  11   377.8   124.8   2
   4  31 -15  1134.3   112.3   2
   4  31 -14  1176.5   102.9   2
   4  31 -13    95.4   115.4   2
   4  31 -12   -84.1    75.7   2
   4  31 -11     4.0    63.1   2
   4  31 -10   -12.9    60.6   2
   4  31  -9   392.8    59.2   2
   4  31  -8     5.0    70.8   2
   4  31  -7   -36.6    66.3   2
   4  31  -6   241.2    62.2   2
   4  31  -5  1293.9    61.4   2
   4  31  -3  1158.6    66.5   2
   4  31  -1   235.4    61.0   2
   4  31   1     5.2    50.3   2
   4  31   2   333.4    68.8   2
   4  31   3  -164.3    67.8   2
   4  31   5    26.3    75.8   2
   4  31   6   288.5    66.4   2
   4  31   7   684.1    73.2   2
   4  31   8   647.8   107.0   2
   4  31   9   315.4   121.1   2
   4  31  10   254.6   137.0   2
   4  31  11  1393.9   169.3   2
   4  32 -13  -122.1   103.4   2
   4  32 -11   455.4    78.8   2
   4  32  -9   174.7    89.8   2
   4  32  -7    65.1    81.2   2
   4  32  -5  -108.2    58.8   2
   4  32  -3    -2.8    83.7   2
   4  32  -1   293.4    71.8   2
   4  32   1   444.0    63.0   2
   4  32   3   780.1    89.1   2
   4  32   5   -25.0    88.7   2
   4  32   7   106.2    80.1   2
   4  32   9    -6.7   137.1   2
   4  33 -12    20.2   109.8   2
   4  33 -11   635.2   124.5   2
   4  33 -10  2102.6   100.1   2
   4  33  -9   107.0   108.2   2
   4  33  -8   285.5   107.4   2
   4  33  -7   -89.0    95.7   2
   4  33  -6   123.6    91.5   2
   4  33  -5   -78.9    66.4   2
   4  33  -3   -77.4    82.3   2
   4  33  -1   131.3    83.0   2
   4  33   1   -13.4    64.5   2
   4  33   3    21.4    98.6   2
   4  33   5   -33.3   108.3   2
   4  33   6   670.6    92.6   2
   4  33   7   554.6   101.5   2
   4  34 -11   -80.3   112.5   2
   4  34  -9   -53.0   134.5   2
   4  34  -7  1037.2   126.0   2
   4  34  -5   -11.4    79.7   2
   4  34  -3    43.3   103.3   2
   4  34  -1    86.5   102.6   2
   4  34   1    77.4    77.7   2
   4  34   3    23.2   115.9   2
   4  34   5   273.7   132.1   2
   4  34   7   409.2   117.4   2
   4  35  -9   177.2   163.7   2
   4  35  -7   -47.0   139.2   2
   4  35  -6   197.9   101.0   2
   4  35  -5   193.6    94.8   2
   4  35  -3   975.1   131.9   2
   4  35  -1    88.1   122.1   2
   4  35   1   -69.8    95.2   2
   4  35   3  -112.1   147.9   2
   4  35   5    74.5   153.9   2
   4  36  -5   385.7   119.1   2
   4  36  -3   103.5   154.8   2
   4  36  -1  1053.4   155.0   2
   4  36   1    51.2   109.5   2
   5   0 -19    28.9    26.4   2
   5   0 -14   275.6    20.6   2
   5   0  -2    56.4     3.5   2
   5   0  -1    13.2     2.9   2
   5   0   1    10.8     3.9   2
   5   0   2   504.5    10.0   2
   5   0   9    23.1    12.5   2
   5   0  11     4.1    12.9   2
   5   0  13   -16.4    17.1   2
   5   0  17    27.8    29.0   2
   5   0  19   -68.7    52.4   2
   5   0  21  -117.0    87.1   2
   5   1 -26    -0.2    66.8   2
   5   1 -25   -78.6    51.3   2
   5   1 -24    77.9    41.6   2
   5   1 -23   -52.9    37.8   2
   5   1 -22    38.1    30.3   2
   5   1 -21   259.1    26.3   2
   5   1 -20    54.9    21.3   2
   5   1 -19   180.4    18.1   2
   5   1 -18   226.5    16.4   2
   5   1 -17     5.3    14.4   2
   5   1 -16  1394.4    25.3   2
   5   1 -15   657.7    17.3   2
   5   1 -14    78.9    12.0   2
   5   1 -13  2555.7    35.8   2
   5   1 -12  2035.2    26.0   2
   5   1 -11    91.9    10.5   2
   5   1 -10   364.6    11.4   2
   5   1  -9   566.8    14.2   2
   5   1  -8   134.5     8.0   2
   5   1  -7    81.4     5.3   2
   5   1  -6   817.8    17.2   2
   5   1  -5   196.7     7.8   2
   5   1  -4   749.6    14.6   2
   5   1  -3    46.2     3.3   2
   5   1  -2    56.9     2.0   2
   5   1  -1   631.3     7.8   2
   5   1   0    10.9     2.1   2
   5   1   1    33.2     3.0   2
   5   1   2   440.8     6.8   2
   5   1   3   127.5     4.1   2
   5   1   4    13.4     5.0   2
   5   1   5   891.7    15.9   2
   5   1   6    35.4     6.8   2
   5   1   7   133.9     8.8   2
   5   1   8    14.7     8.0   2
   5   1   9  1411.4    17.4   2
   5   1  10   477.8    12.1   2
   5   1  11  2275.9    24.8   2
   5   1  12   340.6    11.1   2
   5   1  13  2674.7    25.6   2
   5   1  14    55.3    12.4   2
   5   1  15   -29.6    14.9   2
   5   1  16   695.4    21.4   2
   5   1  17   -13.2    21.4   2
   5   1  18   -31.8    26.2   2
   5   1  19   117.5    33.2   2
   5   1  20   120.6    41.6   2
   5   1  21    50.2    61.9   2
   5   1  22   278.4    79.7   2
   5   2 -26   -22.7    71.5   2
   5   2 -25  -108.4    55.4   2
   5   2 -24  1476.5    52.2   2
   5   2 -23   226.3    36.1   2
   5   2 -22    24.7    28.8   2
   5   2 -21   160.0    23.9   2
   5   2 -20   286.4    20.9   2
   5   2 -19   292.4    18.2   2
   5   2 -18   221.1    15.5   2
   5   2 -17   172.2    15.9   2
   5   2 -16  1309.4    22.8   2
   5   2 -15   906.2    21.2   2
   5   2 -14    54.8    13.0   2
   5   2 -13    74.6    11.3   2
   5   2 -12  1030.4    24.8   2
   5   2 -11    37.1     9.3   2
   5   2 -10   870.6    15.6   2
   5   2  -9   478.1    11.7   2
   5   2  -8  2404.1    30.7   2
   5   2  -7  2787.6    44.8   2
   5   2  -6   443.8    10.9   2
   5   2  -5    15.5     4.2   2
   5   2  -4    51.1     3.5   2
   5   2  -3  2044.0    24.3   2
   5   2  -2    74.8     4.4   2
   5   2   0   251.5     6.7   2
   5   2   1  2527.8    27.9   2
   5   2   2   970.2    11.8   2
   5   2   3    78.4     4.9   2
   5   2   4   490.4     8.4   2
   5   2   5    69.5     5.5   2
   5   2   6  2026.7    25.6   2
   5   2   7  1338.8    16.3   2
   5   2   8   352.7     9.7   2
   5   2   9  2622.5    26.0   2
   5   2  10  1028.0    17.1   2
   5   2  11   254.9    11.9   2
   5   2  12   283.4    13.2   2
   5   2  13   116.8    11.0   2
   5   2  14     5.4    12.4   2
   5   2  15   178.3    15.5   2
   5   2  16    30.2    16.3   2
   5   2  17    -0.6    19.9   2
   5   2  18     0.3    24.3   2
   5   2  19    76.6    30.0   2
   5   2  20    38.7    37.3   2
   5   2  21   422.3    49.9   2
   5   2  22   -81.9    60.2   2
   5   3 -26  -169.1    65.4   2
   5   3 -25   404.2    52.9   2
   5   3 -24    84.0    41.5   2
   5   3 -23    40.4    32.8   2
   5   3 -22   300.5    28.7   2
   5   3 -21   281.3    23.5   2
   5   3 -20   444.5    20.6   2
   5   3 -19    36.2    16.6   2
   5   3 -18   417.3    15.3   2
   5   3 -17   518.4    18.0   2
   5   3 -16    35.4    13.5   2
   5   3 -15  6496.1    87.6   2
   5   3 -14    26.3    13.2   2
   5   3 -13  2048.6    37.5   2
   5   3 -12  1211.6    20.6   2
   5   3 -11   124.7    10.1   2
   5   3 -10    93.3    10.4   2
   5   3  -9    48.1     7.9   2
   5   3  -8   273.8     9.5   2
   5   3  -7    22.7     6.1   2
   5   3  -6   608.5    13.8   2
   5   3  -5   111.1     5.8   2
   5   3  -4   216.3     5.7   2
   5   3  -3   132.4     3.1   2
   5   3  -1   145.9     7.1   2
   5   3   0   761.0    24.2   2
   5   3   1   209.9     4.2   2
   5   3   2  4371.3    48.9   2
   5   3   3     6.9     4.0   2
   5   3   4    21.4     4.4   2
   5   3   5   108.5     5.9   2
   5   3   6  1470.2    18.4   2
   5   3   7    34.1     7.3   2
   5   3   8    10.1     8.3   2
   5   3   9  3003.1    31.0   2
   5   3  10    46.4     9.8   2
   5   3  11    45.5    10.3   2
   5   3  12  1820.6    23.0   2
   5   3  13    12.7    12.3   2
   5   3  14    26.1    14.9   2
   5   3  15  1310.4    23.4   2
   5   3  16   383.7    18.3   2
   5   3  17   294.6    21.3   2
   5   3  18   402.6    26.5   2
   5   3  19  1697.3    40.9   2
   5   3  20    19.8    37.9   2
   5   3  21    33.0    48.9   2
   5   3  22   388.7    64.1   2
   5   4 -26  -128.8    75.6   2
   5   4 -25   -14.0    59.1   2
   5   4 -24   -99.4    68.1   2
   5   4 -23    72.4    54.6   2
   5   4 -22   386.1    31.4   2
   5   4 -21   391.6    26.5   2
   5   4 -20  1518.2    28.4   2
   5   4 -19  1457.0    25.6   2
   5   4 -18    63.7    15.0   2
   5   4 -17   -14.8    13.8   2
   5   4 -16  1793.8    25.6   2
   5   4 -15   459.9    16.5   2
   5   4 -14  2852.7    46.3   2
   5   4 -13   439.3    16.3   2
   5   4 -12    -2.4    10.4   2
   5   4 -11  2104.2    34.5   2
   5   4 -10  1264.2    21.8   2
   5   4  -9   269.9     9.6   2
   5   4  -8   783.4    15.3   2
   5   4  -7   189.9     7.4   2
   5   4  -6    60.7     5.2   2
   5   4  -5   702.0    11.5   2
   5   4  -4  1872.3    22.7   2
   5   4  -3    68.7     3.4   2
   5   4   1   586.4     9.3   2
   5   4   2   122.7     3.3   2
   5   4   3   265.6     6.7   2
   5   4   4    50.6     5.5   2
   5   4   5   375.5     8.8   2
   5   4   6   319.8     8.9   2
   5   4   7  3096.0    41.4   2
   5   4   8    16.2     8.6   2
   5   4   9    22.2    14.7   2
   5   4  10   786.2    17.5   2
   5   4  11   391.2    13.3   2
   5   4  12   959.8    18.3   2
   5   4  13    23.8    13.8   2
   5   4  14   -28.5    16.4   2
   5   4  15    -8.4    17.7   2
   5   4  16    11.8    18.1   2
   5   4  17  1979.6    33.2   2
   5   4  18   462.5    27.0   2
   5   4  19    -2.3    31.1   2
   5   4  20   267.4    41.0   2
   5   4  21  1250.0    57.4   2
   5   4  22  -171.2    64.0   2
   5   5 -23   452.2    43.5   2
   5   5 -17   600.7    21.7   2
   5   5 -13   137.6    13.5   2
   5   5 -12   650.4    21.8   2
   5   5  -9    12.4    11.8   2
   5   5  -8    43.5     6.7   2
   5   5  -7   203.1     7.7   2
   5   5  -6     6.0     6.7   2
   5   5  -4    15.5     2.9   2
   5   5  -3   149.2     4.3   2
   5   5  -2   395.9    15.0   2
   5   5   1  1902.8    25.8   2
   5   5   2  1647.3    17.0   2
   5   5   3   372.3     7.9   2
   5   5   4   697.9    11.6   2
   5   5   6   349.3     9.1   2
   5   5   7   705.9    14.6   2
   5   5   8   168.6    10.3   2
   5   5   9   636.6    16.3   2
   5   5  11  1122.9    21.4   2
   5   5  12   186.1    16.1   2
   5   5  13    88.1    14.7   2
   5   5  14   435.1    21.0   2
   5   5  16  1470.2    63.0   2
   5   5  17    71.3    29.2   2
   5   5  18   213.9    34.3   2
   5   6 -25  -107.4    55.4   2
   5   6 -24   -10.8    44.7   2
   5   6 -23   315.6    43.8   2
   5   6 -22    -9.3    31.2   2
   5   6 -21    75.3    25.7   2
   5   6 -20    20.6    21.5   2
   5   6 -19   306.9    18.6   2
   5   6 -18   -35.4    15.5   2
   5   6 -17   244.0    15.1   2
   5   6 -16    29.2    13.4   2
   5   6 -15  1041.2    20.2   2
   5   6 -14  1218.9    22.9   2
   5   6 -13   298.1    13.1   2
   5   6 -12   243.9    12.3   2
   5   6 -11  1348.8    24.4   2
   5   6 -10   286.7    11.5   2
   5   6  -9    24.0     9.0   2
   5   6  -8   235.6     7.7   2
   5   6  -7   555.8    14.5   2
   5   6  -6   170.9     7.3   2
   5   6  -5   612.9    10.2   2
   5   6  -4  1516.6    19.7   2
   5   6  -3  3558.6    34.6   2
   5   6  -2    31.8     6.4   2
   5   6  -1    16.2     7.0   2
   5   6   0   973.3    32.9   2
   5   6   1   132.5     4.1   2
   5   6   2   769.8     9.3   2
   5   6   3    88.2     5.4   2
   5   6   4  2140.3    28.1   2
   5   6   5   227.2     8.9   2
   5   6   6   408.7    11.6   2
   5   6   7   443.0    13.1   2
   5   6   8   630.6    13.0   2
   5   6   9  3142.8    35.3   2
   5   6  10    -5.5    11.4   2
   5   6  11   -15.9    19.4   2
   5   6  12     8.6    14.7   2
   5   6  13   605.2    19.2   2
   5   6  14    87.2    18.1   2
   5   6  15   -26.8    22.3   2
   5   6  16   320.2    31.5   2
   5   6  17   273.1    31.2   2
   5   6  18   120.0    31.7   2
   5   6  19    80.1    36.2   2
   5   6  20   581.0    54.1   2
   5   6  21    12.8    52.5   2
   5   6  22    85.9    67.3   2
   5   7 -26   -97.8    72.9   2
   5   7 -25    77.1    63.7   2
   5   7 -24   177.7    56.6   2
   5   7 -23   -66.6    39.0   2
   5   7 -22   -53.6    35.0   2
   5   7 -21   412.8    27.9   2
   5   7 -20    76.5    22.1   2
   5   7 -19    47.2    18.6   2
   5   7 -18   214.0    16.7   2
   5   7 -17   115.9    14.6   2
   5   7 -16   446.0    14.8   2
   5   7 -15  1098.0    20.5   2
   5   7 -14   325.3    14.5   2
   5   7 -13    28.8    11.8   2
   5   7 -12   701.5    23.3   2
   5   7 -11   835.6    17.0   2
   5   7 -10    74.4     8.9   2
   5   7  -9   210.2     9.0   2
   5   7  -8  1779.0    24.4   2
   5   7  -7   941.8    19.1   2
   5   7  -6    67.0     5.1   2
   5   7  -5   416.7     8.3   2
   5   7  -4    32.4     4.6   2
   5   7  -3   170.3     4.4   2
   5   7  -2  4265.3    53.0   2
   5   7  -1   217.2     7.0   2
   5   7   0   378.2    10.7   2
   5   7   1   140.2     4.3   2
   5   7   2  1345.6    17.2   2
   5   7   3   349.6     8.4   2
   5   7   4  1909.0    29.2   2
   5   7   5   171.7     8.1   2
   5   7   6   503.5    14.2   2
   5   7   7    90.0    10.1   2
   5   7   8    33.2    11.5   2
   5   7   9   469.8    15.1   2
   5   7  10   230.0    15.0   2
   5   7  11   106.2    13.9   2
   5   7  12   201.3    15.6   2
   5   7  13   131.5    17.1   2
   5   7  14   439.0    21.4   2
   5   7  15   210.4    26.9   2
   5   7  16   -40.5    28.3   2
   5   7  17    26.5    31.6   2
   5   7  18    96.1    39.4   2
   5   7  19  1083.5    57.3   2
   5   7  20     1.9    54.2   2
   5   7  21   -34.8    70.9   2
   5   7  22  -134.7    90.3   2
   5   8 -26   326.7   105.0   2
   5   8 -25  1076.3    73.7   2
   5   8 -24    -3.7    52.2   2
   5   8 -23   633.2    45.8   2
   5   8 -22    74.0    33.9   2
   5   8 -21   882.6    32.3   2
   5   8 -20   188.2    23.7   2
   5   8 -19  2737.7    33.5   2
   5   8 -18   163.7    16.0   2
   5   8 -17   182.5    14.4   2
   5   8 -16    -6.2    12.7   2
   5   8 -15   473.9    14.9   2
   5   8 -14  2114.5    27.0   2
   5   8 -13  1003.7    26.0   2
   5   8 -12  3421.5    41.3   2
   5   8 -11     5.6    10.6   2
   5   8 -10   169.7    11.3   2
   5   8  -9    51.8     8.8   2
   5   8  -8   438.8    10.5   2
   5   8  -7    92.8     6.2   2
   5   8  -6   387.0     8.6   2
   5   8  -5   152.9     6.3   2
   5   8  -4     8.4     4.7   2
   5   8  -3   306.3     6.4   2
   5   8  -2   757.4     9.2   2
   5   8  -1   109.8     5.0   2
   5   8   0    20.5     4.5   2
   5   8   1    46.5     4.0   2
   5   8   2    63.9     4.9   2
   5   8   3   565.8    15.0   2
   5   8   4    69.5     9.8   2
   5   8   5   366.0    12.9   2
   5   8   6   172.7    10.2   2
   5   8   7   729.9    17.6   2
   5   8   8  1340.2    30.8   2
   5   8   9   173.0    14.3   2
   5   8  10    81.4    15.5   2
   5   8  11    38.9    16.9   2
   5   8  12    -2.7    15.8   2
   5   8  13    14.6    17.7   2
   5   8  14    47.3    20.3   2
   5   8  15   127.0    24.2   2
   5   8  16   -41.6    25.6   2
   5   8  17    50.7    33.3   2
   5   8  18   196.0    42.2   2
   5   8  19   -93.6    54.2   2
   5   8  20    81.2    68.8   2
   5   8  21  -103.4    72.3   2
   5   8  22   -33.7    96.0   2
   5   9 -26   252.9    90.5   2
   5   9 -25   -55.1    69.7   2
   5   9 -24   -91.6    54.9   2
   5   9 -23   127.2    44.7   2
   5   9 -22   -13.8    31.8   2
   5   9 -21   600.7    29.4   2
   5   9 -20   172.4    23.0   2
   5   9 -19   320.9    20.8   2
   5   9 -18   866.7    23.0   2
   5   9 -17  1433.8    22.8   2
   5   9 -16  2515.9    27.9   2
   5   9 -15    36.0    12.2   2
   5   9 -14    61.1    19.7   2
   5   9 -13   156.3    11.8   2
   5   9 -12  3290.0    39.6   2
   5   9 -11   117.1    10.2   2
   5   9 -10   773.9    15.3   2
   5   9  -9   164.1     8.6   2
   5   9  -8   240.3     8.7   2
   5   9  -7   394.2     9.7   2
   5   9  -6   487.5    10.1   2
   5   9  -5  1113.0    24.2   2
   5   9  -4   688.3    12.5   2
   5   9  -3   112.2     5.8   2
   5   9  -2    73.0     4.1   2
   5   9  -1   201.5     5.6   2
   5   9   0   374.0     8.2   2
   5   9   1   185.5     6.3   2
   5   9   2   138.0     5.8   2
   5   9   3    11.8     7.9   2
   5   9   4    12.7     9.8   2
   5   9   5    98.6    14.6   2
   5   9   6   128.2    12.9   2
   5   9   7   395.3    13.3   2
   5   9   8    16.5    13.7   2
   5   9   9    58.0    18.2   2
   5   9  10  1726.8    33.3   2
   5   9  11   142.6    16.6   2
   5   9  12   145.4    19.8   2
   5   9  13   633.2    23.4   2
   5   9  14   396.5    31.6   2
   5   9  15   260.7    26.5   2
   5   9  16   488.5    30.7   2
   5   9  17    24.1    33.2   2
   5   9  18    59.6    43.5   2
   5   9  19   111.2    56.1   2
   5   9  20   250.9    86.0   2
   5   9  21  -161.7    93.6   2
   5   9  22  -146.2   123.5   2
   5  10 -22   323.3    40.8   2
   5  10 -21   405.1    66.7   2
   5  10 -18    -6.0    18.0   2
   5  10 -17   365.7    15.7   2
   5  10 -16     6.3    13.5   2
   5  10 -14     7.7    12.5   2
   5  10 -13   292.1    12.9   2
   5  10 -12   467.0    13.6   2
   5  10 -11    29.6     9.8   2
   5  10  -9   119.9     9.1   2
   5  10  -8   213.8     8.6   2
   5  10  -7  1694.5    20.5   2
   5  10  -6  1812.9    35.5   2
   5  10  -4  1163.6    15.4   2
   5  10  -3    19.6     6.0   2
   5  10  -2   994.0    12.7   2
   5  10  -1  1016.6    16.4   2
   5  10   1   188.7     7.5   2
   5  10   2     7.4     6.2   2
   5  10   3   431.2    12.6   2
   5  10   4    23.9     9.1   2
   5  10   6   305.0    16.6   2
   5  10   7   140.0    15.0   2
   5  10   8   447.2    19.6   2
   5  10   9   -22.8    14.5   2
   5  10  11    -0.2    18.3   2
   5  10  12    72.6    20.6   2
   5  10  13    40.0    23.4   2
   5  10  14  3012.1    63.3   2
   5  10  17   360.8    40.1   2
   5  10  18   384.0    46.2   2
   5  10  19   127.3    59.9   2
   5  10  21    39.3   100.9   2
   5  11 -25   -32.0    70.7   2
   5  11 -24  -182.2    55.6   2
   5  11 -23   132.0    44.9   2
   5  11 -22    19.9    48.6   2
   5  11 -21   180.1    38.4   2
   5  11 -20   439.0    26.6   2
   5  11 -19   126.9    19.9   2
   5  11 -18   -63.1    17.2   2
   5  11 -17    63.7    17.3   2
   5  11 -15  1139.3    21.0   2
   5  11 -14    14.8    12.7   2
   5  11 -13    19.9    11.6   2
   5  11 -12   215.4    11.9   2
   5  11 -11     2.6    11.9   2
   5  11 -10  1190.0    20.4   2
   5  11  -9  1252.2    17.9   2
   5  11  -8   653.7    13.9   2
   5  11  -7   170.8    10.8   2
   5  11  -6   292.0    11.8   2
   5  11  -4   796.1    17.8   2
   5  11  -3   176.6     8.0   2
   5  11  -2    28.6     6.5   2
   5  11  -1   477.8    10.5   2
   5  11   0   343.3    12.9   2
   5  11   1    13.6     7.4   2
   5  11   2   383.1    10.3   2
   5  11   3   564.5    14.6   2
   5  11   4   695.7    19.9   2
   5  11   5    80.6    11.1   2
   5  11   6   675.7    23.7   2
   5  11   7   -30.6    13.9   2
   5  11   8  3155.2    64.0   2
   5  11   9    56.1    16.5   2
   5  11  10   373.4    18.9   2
   5  11  11   789.2    26.4   2
   5  11  12   638.8    24.2   2
   5  11  13   972.1    30.5   2
   5  11  14    26.9    28.0   2
   5  11  15   -10.5    30.4   2
   5  11  16    28.0    35.0   2
   5  11  17     4.8    39.0   2
   5  11  18    -4.0    48.9   2
   5  11  19   186.0    58.6   2
   5  11  20   332.1    82.3   2
   5  11  21   123.9   105.6   2
   5  12 -25   -87.6    76.8   2
   5  12 -24   -34.9    60.7   2
   5  12 -23   575.4    51.7   2
   5  12 -21   426.5    34.2   2
   5  12 -20  1259.6    34.6   2
   5  12 -19   874.1    29.2   2
   5  12 -18   131.9    20.9   2
   5  12 -17   -37.7    29.7   2
   5  12 -16  1538.3    25.7   2
   5  12 -15    21.4    12.7   2
   5  12 -14   504.8    15.5   2
   5  12 -13   163.6    12.5   2
   5  12 -12   222.6    13.8   2
   5  12 -11   121.2    12.5   2
   5  12 -10   507.5    15.0   2
   5  12  -9   131.9    10.7   2
   5  12  -8  1295.8    26.6   2
   5  12  -7    15.9    10.2   2
   5  12  -6   320.4    11.3   2
   5  12  -5   104.2    12.4   2
   5  12  -4   495.9    12.8   2
   5  12  -3    29.1     6.7   2
   5  12  -2    42.1     8.7   2
   5  12  -1    -9.1    10.1   2
   5  12   0   534.8    19.0   2
   5  12   1    25.8     8.2   2
   5  12   2   596.9    15.5   2
   5  12   3    18.3    11.0   2
   5  12   4   746.3    19.1   2
   5  12   5   347.1    16.5   2
   5  12   6   148.8    28.8   2
   5  12   7  1452.8    36.8   2
   5  12   8   113.8    18.0   2
   5  12   9    60.7    18.3   2
   5  12  10    22.6    20.5   2
   5  12  11   191.1    20.8   2
   5  12  13  1146.3    35.2   2
   5  12  14   362.8    32.3   2
   5  12  15   -34.5    37.1   2
   5  12  16   933.8    46.2   2
   5  12  18   380.1    53.6   2
   5  12  19  -118.9    67.5   2
   5  12  20   563.8    83.4   2
   5  12  21  -214.5    86.4   2
   5  13 -25  -238.0    83.0   2
   5  13 -24   131.6    67.2   2
   5  13 -22   -62.3    48.1   2
   5  13 -21   591.1    37.5   2
   5  13 -20   179.9    32.3   2
   5  13 -19   -34.8    25.6   2
   5  13 -17    59.1    19.0   2
   5  13 -16   145.8    15.8   2
   5  13 -15   205.1    14.5   2
   5  13 -14   245.2    14.0   2
   5  13 -13    75.1    12.8   2
   5  13 -12   597.2    15.9   2
   5  13 -11  3860.8    45.7   2
   5  13 -10  1165.0    22.2   2
   5  13  -9    28.4    11.2   2
   5  13  -8   524.0    18.0   2
   5  13  -7   265.5    11.6   2
   5  13  -6   627.0    17.1   2
   5  13  -4    13.0     8.5   2
   5  13  -3    42.2     9.2   2
   5  13  -2    97.7     9.4   2
   5  13  -1  1111.8    24.0   2
   5  13   1   118.1    11.0   2
   5  13   2    43.5    10.5   2
   5  13   3  2254.5    38.7   2
   5  13   4  1332.0    28.2   2
   5  13   5    87.0    15.5   2
   5  13   6    89.8    17.2   2
   5  13   7   172.2    15.8   2
   5  13   8    56.9    21.8   2
   5  13   9    18.6    19.5   2
   5  13  10   446.5    24.9   2
   5  13  11     6.2    19.5   2
   5  13  12   843.2    26.9   2
   5  13  13   -25.5    28.5   2
   5  13  14   579.0    38.0   2
   5  13  15   540.9    43.9   2
   5  13  16   -27.7    48.1   2
   5  13  17   306.9    56.4   2
   5  13  18   -87.7    59.2   2
   5  13  19   -25.5    68.7   2
   5  13  20  1567.0   100.2   2
   5  13  21   -39.3   112.7   2
   5  14 -24   269.2   106.9   2
   5  14 -23   248.3    67.0   2
   5  14 -22   159.2    46.4   2
   5  14 -21   -89.9    40.4   2
   5  14 -20   171.8    33.9   2
   5  14 -18   591.5    27.1   2
   5  14 -17    16.6    18.5   2
   5  14 -16     0.4    16.2   2
   5  14 -15   -13.8    13.7   2
   5  14 -13   300.8    14.9   2
   5  14 -12    59.5    15.8   2
   5  14 -11   166.8    14.8   2
   5  14 -10   928.1    29.5   2
   5  14  -9   120.5    15.0   2
   5  14  -8  2969.7    43.1   2
   5  14  -7   155.0    12.1   2
   5  14  -6   152.2    14.0   2
   5  14  -4   235.0    10.6   2
   5  14  -3   384.3    13.4   2
   5  14  -2     3.4    10.0   2
   5  14  -1    72.1    11.9   2
   5  14   1    -7.6    11.9   2
   5  14   2   279.7    13.7   2
   5  14   3   137.4    13.4   2
   5  14   4   175.7    19.0   2
   5  14   5   264.7    22.3   2
   5  14   6     3.5    18.8   2
   5  14   7  2570.2    54.2   2
   5  14   8   443.5    22.0   2
   5  14   9    48.6    18.6   2
   5  14  10   153.1    21.4   2
   5  14  11   133.2    22.1   2
   5  14  12   377.3    26.3   2
   5  14  13  1008.4    39.5   2
   5  14  15   396.4    46.5   2
   5  14  16   179.4    54.4   2
   5  14  17   -44.9    63.0   2
   5  14  18   249.0    83.1   2
   5  14  20    57.6    94.2   2
   5  15 -24   190.8    75.3   2
   5  15 -23   -43.8    65.5   2
   5  15 -22    97.0    60.1   2
   5  15 -21   -52.4   100.4   2
   5  15 -19   206.0    56.8   2
   5  15 -18    -6.8    23.8   2
   5  15 -17   -37.9    19.8   2
   5  15 -16    25.1    18.1   2
   5  15 -14    -1.1    13.9   2
   5  15 -13   345.4    16.2   2
   5  15 -12    46.7    13.6   2
   5  15 -11   845.2    21.9   2
   5  15  -9  1045.1    22.1   2
   5  15  -8  1390.8    28.4   2
   5  15  -7   260.0    13.4   2
   5  15  -6    52.7    12.4   2
   5  15  -4   -18.9    12.1   2
   5  15  -3   630.1    16.4   2
   5  15  -2  2795.1    52.4   2
   5  15  -1    -8.5    13.2   2
   5  15   1   197.3    15.3   2
   5  15   2  3220.2    58.6   2
   5  15   3  1368.8    23.9   2
   5  15   4  1844.5    38.6   2
   5  15   6   -16.4    18.0   2
   5  15   7   266.7    20.1   2
   5  15   8    -2.9    20.7   2
   5  15   9  1399.1    36.6   2
   5  15  11   -40.3    29.3   2
   5  15  12    14.5    25.4   2
   5  15  13    45.8    28.3   2
   5  15  14   195.9    40.1   2
   5  15  16   -11.7    60.0   2
   5  15  17    42.0    72.3   2
   5  15  18   659.5    91.8   2
   5  15  19  1748.6   117.8   2
   5  16 -24    -8.7    80.6   2
   5  16 -23  -154.1    72.2   2
   5  16 -22   424.2    61.8   2
   5  16 -20  -102.6    35.0   2
   5  16 -19   292.9    31.5   2
   5  16 -18   488.8    28.1   2
   5  16 -17   507.6    25.3   2
   5  16 -15    48.3    15.2   2
   5  16 -14   619.2    18.6   2
   5  16 -13    13.3    13.8   2
   5  16 -12    59.7    15.4   2
   5  16 -11    12.6    14.2   2
   5  16 -10   219.5    14.9   2
   5  16  -9   620.0    18.9   2
   5  16  -8  2653.3    41.9   2
   5  16  -7  2672.1    39.5   2
   5  16  -6   274.8    14.8   2
   5  16  -4   -27.2    14.5   2
   5  16  -3    47.3    12.5   2
   5  16  -2    89.5    17.1   2
   5  16  -1   517.2    19.2   2
   5  16   1   456.3    21.0   2
   5  16   2    72.3    17.1   2
   5  16   3    -8.5    14.4   2
   5  16   4   909.3    29.4   2
   5  16   5     4.1    18.5   2
   5  16   6    48.2    21.5   2
   5  16   7   258.5    22.0   2
   5  16   8   811.8    29.4   2
   5  16   9   855.3    28.8   2
   5  16  10    -2.2    23.3   2
   5  16  12   385.2    29.7   2
   5  16  13   116.6    31.3   2
   5  16  14  2245.6    55.0   2
   5  16  15   152.6    51.6   2
   5  16  17   569.3    83.7   2
   5  16  18   415.9   101.8   2
   5  16  19   -32.1   121.9   2
   5  17 -23   -85.5    81.3   2
   5  17 -21   151.4    46.4   2
   5  17 -20   383.3    40.4   2
   5  17 -19   -14.1    33.5   2
   5  17 -18   940.0    34.0   2
   5  17 -16   261.7    18.9   2
   5  17 -15    12.2    17.2   2
   5  17 -14   -14.2    16.8   2
   5  17 -13    81.1    15.8   2
   5  17 -12    39.3    15.2   2
   5  17 -10  1878.9    57.0   2
   5  17  -9   799.2    22.5   2
   5  17  -8   497.0    16.9   2
   5  17  -7    58.7    15.9   2
   5  17  -6  1439.4    25.1   2
   5  17  -4    55.1    15.5   2
   5  17  -3    37.2    14.1   2
   5  17  -2   -20.3    20.3   2
   5  17  -1    -6.0    15.2   2
   5  17   1   483.1    21.0   2
   5  17   2   631.6    25.4   2
   5  17   3    78.0    19.2   2
   5  17   4    76.5    20.6   2
   5  17   5   192.5    37.1   2
   5  17   6   195.1    21.6   2
   5  17   7    22.6    22.5   2
   5  17   8   124.0    25.5   2
   5  17   9   287.3    26.2   2
   5  17  10   796.7    31.7   2
   5  17  11   134.2    63.9   2
   5  17  12    35.8    46.0   2
   5  17  13     3.8    33.2   2
   5  17  14   135.2    40.9   2
   5  17  15  1023.5    63.7   2
   5  17  16   351.0    70.1   2
   5  17  18   358.4   111.0   2
   5  18 -22     3.3    63.7   2
   5  18 -21   218.6    52.8   2
   5  18 -20   -80.8    42.8   2
   5  18 -19    62.2    36.5   2
   5  18 -17    42.7    21.9   2
   5  18 -16  1780.9    32.9   2
   5  18 -15   385.6    21.4   2
   5  18 -14  1266.0    29.2   2
   5  18 -13    56.1    16.1   2
   5  18 -12  1823.0    28.4   2
   5  18 -11   406.8    19.4   2
   5  18 -10   876.4    31.9   2
   5  18  -9    59.8    21.4   2
   5  18  -8   740.3    21.9   2
   5  18  -7   434.1    21.0   2
   5  18  -6   151.8    14.8   2
   5  18  -4   168.1    18.6   2
   5  18  -3   628.0    20.8   2
   5  18  -2  2855.8    50.6   2
   5  18  -1   161.7    18.7   2
   5  18   1   544.0    23.5   2
   5  18   2  3690.6    56.0   2
   5  18   3    78.4    19.5   2
   5  18   4  1959.3    38.6   2
   5  18   5    38.9    32.1   2
   5  18   6   103.0    24.5   2
   5  18   7   289.4    24.5   2
   5  18   8   249.6    22.3   2
   5  18  10    63.1    29.5   2
   5  18  11   -25.1    31.5   2
   5  18  12    40.1    38.7   2
   5  18  13     9.6    42.7   2
   5  18  14   -10.2    42.2   2
   5  18  15   108.4    47.7   2
   5  18  16   351.4    75.6   2
   5  18  17   -75.3    92.1   2
   5  19 -23   118.3    88.8   2
   5  19 -22   -54.5    70.4   2
   5  19 -21  2149.3    75.6   2
   5  19 -20   375.2    49.5   2
   5  19 -18   -59.6    27.7   2
   5  19 -17   280.6    24.9   2
   5  19 -16   361.8    25.7   2
   5  19 -15    10.8    20.3   2
   5  19 -14     1.3    22.2   2
   5  19 -13   -59.8    18.8   2
   5  19 -12    30.3    16.6   2
   5  19 -11   167.1    16.5   2
   5  19 -10   999.5    30.4   2
   5  19  -9  1504.0    28.2   2
   5  19  -8    97.2    17.4   2
   5  19  -7   553.4    18.6   2
   5  19  -6   645.3    20.9   2
   5  19  -4   891.8    29.4   2
   5  19  -3   456.3    22.9   2
   5  19  -2   232.8    20.6   2
   5  19  -1   148.4    18.3   2
   5  19   1   185.3    21.8   2
   5  19   2    81.5    20.2   2
   5  19   3   144.1    23.3   2
   5  19   4   877.1    26.5   2
   5  19   6  1248.4    33.1   2
   5  19   7    11.9    23.0   2
   5  19   8   774.4    28.3   2
   5  19  10   521.1    36.0   2
   5  19  11   -50.7    36.6   2
   5  19  12   -10.0    48.9   2
   5  19  13  -123.4    47.3   2
   5  19  15   439.0    55.4   2
   5  19  16   -21.1    62.9   2
   5  19  17  -169.5    97.6   2
   5  19  18   453.9   126.7   2
   5  20 -22   -78.8    82.7   2
   5  20 -21    -3.7    91.1   2
   5  20 -19   251.5    41.4   2
   5  20 -18    -7.8    32.0   2
   5  20 -17   221.5    31.1   2
   5  20 -16   -16.4    26.7   2
   5  20 -14   648.4    23.1   2
   5  20 -13   472.5    23.3   2
   5  20 -12    -6.9    18.0   2
   5  20 -11   837.5    24.1   2
   5  20  -9   -32.0    17.0   2
   5  20  -8    68.6    19.4   2
   5  20  -7    46.4    17.9   2
   5  20  -6   -25.7    18.7   2
   5  20  -4  1042.8    29.2   2
   5  20  -3  2288.0    40.9   2
   5  20  -2   -24.6    21.5   2
   5  20  -1    72.4    20.3   2
   5  20   1  1038.5    34.2   2
   5  20   2   185.5    23.3   2
   5  20   3  1578.6    37.3   2
   5  20   4   360.0    25.4   2
   5  20   6   -56.9    24.9   2
   5  20   7  1151.6    36.6   2
   5  20   8   -30.7    27.6   2
   5  20   9   221.4    28.7   2
   5  20  11   440.7    42.7   2
   5  20  12   143.6    46.2   2
   5  20  13   -32.6    53.5   2
   5  20  14  -101.4    61.7   2
   5  20  16   -41.3    82.8   2
   5  20  17   392.0    81.0   2
   5  20  18   -80.7   136.3   2
   5  21 -22   559.6    93.8   2
   5  21 -20   -72.3   136.4   2
   5  21 -19   787.6    46.4   2
   5  21 -18    43.4    46.8   2
   5  21 -17  -115.4    34.0   2
   5  21 -16   290.9    29.1   2
   5  21 -15    50.9    25.0   2
   5  21 -14   719.8    26.3   2
   5  21 -13   -15.9    23.7   2
   5  21 -12   197.1    20.6   2
   5  21 -11   239.1    22.3   2
   5  21 -10  1509.8    66.7   2
   5  21  -9    -8.2    19.2   2
   5  21  -8   853.9    25.5   2
   5  21  -7  1556.4    32.3   2
   5  21  -6    56.1    19.5   2
   5  21  -4   272.8    21.4   2
   5  21  -3   119.1    20.1   2
   5  21  -2   251.6    25.8   2
   5  21  -1  1048.5    28.8   2
   5  21   1  1691.0    39.5   2
   5  21   2   400.0    24.1   2
   5  21   3   166.8    27.1   2
   5  21   4    74.9    26.3   2
   5  21   5   527.8    73.9   2
   5  21   6   113.4    52.9   2
   5  21   7   -42.2    27.9   2
   5  21   8    -5.7    31.7   2
   5  21   9   382.5    30.7   2
   5  21  11   563.2    49.6   2
   5  21  12   491.5    54.9   2
   5  21  14  2838.8    98.9   2
   5  21  16   999.8    88.2   2
   5  21  17   -96.5    91.0   2
   5  21  18  -401.6   155.9   2
   5  22 -21    -6.4    69.3   2
   5  22 -20   -79.8    54.6   2
   5  22 -19   322.0    47.7   2
   5  22 -18   301.7    46.5   2
   5  22 -16    12.1    31.2   2
   5  22 -15   597.6    32.3   2
   5  22 -14   -37.7    26.9   2
   5  22 -13    56.7    21.9   2
   5  22 -12    21.3    24.1   2
   5  22 -11   130.3    32.8   2
   5  22  -9   154.3    25.4   2
   5  22  -8   209.3    19.5   2
   5  22  -7   221.4    21.0   2
   5  22  -6  1504.8    33.2   2
   5  22  -4   404.4    24.7   2
   5  22  -3     9.9    22.9   2
   5  22  -2  1186.2    30.8   2
   5  22  -1    14.8    23.0   2
   5  22   1    24.3    24.9   2
   5  22   2    38.6    23.2   2
   5  22   3    41.6    24.8   2
   5  22   4   143.2    23.3   2
   5  22   5   578.9    54.4   2
   5  22   6   681.5    47.1   2
   5  22   7  1007.5    40.2   2
   5  22   8   -30.8    34.0   2
   5  22   9   119.2    32.1   2
   5  22  10   174.5    35.7   2
   5  22  13    75.8    65.8   2
   5  22  14   542.9    81.0   2
   5  22  16   -82.3    84.9   2
   5  23 -21   382.6    74.6   2
   5  23 -20   316.4    68.0   2
   5  23 -18    55.3    62.4   2
   5  23 -17   410.4    41.6   2
   5  23 -16    73.5    35.1   2
   5  23 -15    -1.4    32.8   2
   5  23 -14  2182.0    66.7   2
   5  23 -13   374.2    26.6   2
   5  23 -12   136.3    27.0   2
   5  23 -11   564.5    27.8   2
   5  23 -10   100.3    24.3   2
   5  23  -9   332.4    31.9   2
   5  23  -8   703.4    25.7   2
   5  23  -7   -45.4    23.2   2
   5  23  -6    16.7    23.6   2
   5  23  -4   291.9    21.3   2
   5  23  -3    -7.1    22.4   2
   5  23  -2   939.7    31.3   2
   5  23  -1   208.9    23.3   2
   5  23   1   -46.3    24.0   2
   5  23   2    77.1    25.9   2
   5  23   3  1582.7    41.6   2
   5  23   4   -37.6    27.6   2
   5  23   6    58.3    32.5   2
   5  23   7   -32.0    34.5   2
   5  23   8   -60.4    39.0   2
   5  23   9   187.6    48.8   2
   5  23  10   -21.7    39.0   2
   5  23  11  1108.7    51.6   2
   5  23  12  -128.0    65.1   2
   5  23  13   508.7    79.1   2
   5  23  15   140.0   111.0   2
   5  23  16   331.4   130.6   2
   5  23  17  -206.5   115.5   2
   5  24 -20  1336.2    88.8   2
   5  24 -19    28.6    66.8   2
   5  24 -18  -108.4    53.3   2
   5  24 -17   -82.2    46.3   2
   5  24 -16   246.6    41.1   2
   5  24 -15   328.7    33.1   2
   5  24 -14   582.7    34.1   2
   5  24 -13  3281.0    57.4   2
   5  24 -12   861.8    41.1   2
   5  24 -11     6.9    29.8   2
   5  24 -10   511.4    49.1   2
   5  24  -9  1706.1    38.6   2
   5  24  -8   195.7    24.5   2
   5  24  -7   144.1    26.1   2
   5  24  -6     5.3    25.8   2
   5  24  -4    90.7    22.5   2
   5  24  -3   -37.3    25.2   2
   5  24  -2   -55.4    24.9   2
   5  24  -1   157.9    26.4   2
   5  24   1   -17.8    27.3   2
   5  24   2  2606.0    54.8   2
   5  24   3  1217.4    39.5   2
   5  24   4   203.3    31.7   2
   5  24   6   -31.4    35.9   2
   5  24   7   243.6    45.1   2
   5  24   9   794.4    53.9   2
   5  24  10  1120.1   114.1   2
   5  24  11    11.2    46.1   2
   5  24  13   -53.2    87.3   2
   5  24  14  1602.6   143.8   2
   5  25 -19   -55.5    70.3   2
   5  25 -18  1448.9    71.3   2
   5  25 -17   699.9    57.7   2
   5  25 -16   263.7    48.1   2
   5  25 -14     1.3    35.3   2
   5  25 -13  1552.7    47.1   2
   5  25 -12  1961.1    52.2   2
   5  25 -11  1245.6    42.2   2
   5  25  -9   182.1    28.2   2
   5  25  -8   148.4    30.9   2
   5  25  -7   424.1    31.2   2
   5  25  -6   -58.5    28.5   2
   5  25  -4    29.4    24.6   2
   5  25  -3    35.9    28.0   2
   5  25  -2   227.8    29.3   2
   5  25  -1   436.2    29.7   2
   5  25   1    91.6    30.5   2
   5  25   2   209.4    31.5   2
   5  25   3  1768.9    48.6   2
   5  25   4   292.0    35.8   2
   5  25   6   610.8    44.6   2
   5  25   7  1955.9    65.5   2
   5  25   8     2.6    48.2   2
   5  25   9    50.7    53.9   2
   5  25  11    75.2    54.5   2
   5  25  12   247.7    83.0   2
   5  25  13   244.6    97.2   2
   5  25  14   379.8   120.9   2
   5  26 -19   756.6    87.1   2
   5  26 -18  1251.3    79.8   2
   5  26 -17   -77.4    61.5   2
   5  26 -16  1346.5    54.9   2
   5  26 -15    20.2    42.5   2
   5  26 -14   -77.4    41.2   2
   5  26 -13   715.6    63.8   2
   5  26 -12    41.0    43.4   2
   5  26 -11   241.7    40.8   2
   5  26 -10   127.7    37.5   2
   5  26  -9   801.3    36.9   2
   5  26  -8   737.9    39.5   2
   5  26  -7   -58.3    33.8   2
   5  26  -6   297.3    35.4   2
   5  26  -4    65.0    26.9   2
   5  26  -3   -42.6    31.1   2
   5  26  -2   232.7    31.7   2
   5  26  -1   -24.2    31.2   2
   5  26   1  1692.7    43.9   2
   5  26   2    98.3    35.0   2
   5  26   3   495.0    38.8   2
   5  26   6   428.4    63.6   2
   5  26   8   276.4    57.9   2
   5  26   9   -92.1    61.5   2
   5  26  10   241.6    69.7   2
   5  26  11    -3.4    62.1   2
   5  26  12   -94.7    67.7   2
   5  26  14   -18.2   133.5   2
   5  26  15  -316.4   160.7   2
   5  27 -18   869.3    88.5   2
   5  27 -17    48.7    81.9   2
   5  27 -16  1072.1    67.2   2
   5  27 -15     3.0    60.4   2
   5  27 -14   -51.3    54.6   2
   5  27 -13   -98.8    50.1   2
   5  27 -12   246.8    50.7   2
   5  27 -11   335.1    48.4   2
   5  27 -10     0.8    36.9   2
   5  27  -9   714.8    40.8   2
   5  27  -8   188.3    42.2   2
   5  27  -7   918.1    46.5   2
   5  27  -6  1182.9    47.2   2
   5  27  -4  2612.6    51.9   2
   5  27  -3    30.3    34.8   2
   5  27  -2   159.5    35.8   2
   5  27  -1   -64.8    35.0   2
   5  27   1   757.3    37.3   2
   5  27   2   394.4    42.7   2
   5  27   3    -7.5    41.2   2
   5  27   4    52.3    44.1   2
   5  27   6   405.4    44.8   2
   5  27   7   336.2    58.4   2
   5  27   8   -29.9    63.9   2
   5  27   9    -6.9    69.0   2
   5  27  10  -108.1    78.6   2
   5  27  14    -3.9   149.4   2
   5  28 -17   361.0    73.3   2
   5  28 -16  1017.7    77.9   2
   5  28 -15    83.2    61.2   2
   5  28 -14   396.1    67.9   2
   5  28 -13   -52.8    65.3   2
   5  28 -12   107.2    60.2   2
   5  28 -11  1763.7    69.7   2
   5  28 -10   -24.3    42.8   2
   5  28  -9   161.7    41.5   2
   5  28  -8  1546.1    61.2   2
   5  28  -7  1186.1    54.9   2
   5  28  -6   -46.7    43.6   2
   5  28  -4    65.8    33.7   2
   5  28  -3   240.6    41.6   2
   5  28  -2    10.4    39.4   2
   5  28  -1    83.4    40.4   2
   5  28   1   -40.8    35.4   2
   5  28   2   217.8    48.4   2
   5  28   3   -89.9    46.1   2
   5  28   4  1486.3    64.2   2
   5  28   7   -20.6    65.1   2
   5  28   8    46.2    73.4   2
   5  28   9  -130.2    82.0   2
   5  28  12   542.3    92.6   2
   5  29 -16   -19.9    73.1   2
   5  29 -15  3415.3   119.8   2
   5  29 -14    94.4    80.0   2
   5  29 -13   323.2    83.0   2
   5  29 -12   -23.5    72.3   2
   5  29 -11  2416.5    86.6   2
   5  29  -9   366.6    48.2   2
   5  29  -8    32.5    55.0   2
   5  29  -7   826.2    57.0   2
   5  29  -6   813.1    55.2   2
   5  29  -4  1043.2    46.0   2
   5  29  -3   -65.4    47.2   2
   5  29  -2  1103.9    57.2   2
   5  29  -1    10.1    46.6   2
   5  29   1   -75.9    41.3   2
   5  29   2   592.9    56.3   2
   5  29   3    40.7    56.1   2
   5  29   4  -104.5    56.0   2
   5  29   6     0.2    58.6   2
   5  29   7  1949.3    96.8   2
   5  29   8  -135.4    85.0   2
   5  29  11   502.8   125.7   2
   5  30 -16  -318.4    97.6   2
   5  30 -14  1082.8   102.1   2
   5  30 -13  1173.2   101.6   2
   5  30 -12   128.0    86.5   2
   5  30 -11   -32.3    58.9   2
   5  30  -9   673.8    73.3   2
   5  30  -8   671.8    68.6   2
   5  30  -7  2839.3    88.7   2
   5  30  -6     6.3    58.6   2
   5  30  -4  1706.3    57.5   2
   5  30  -3   -39.4    54.2   2
   5  30  -2   -29.7    56.4   2
   5  30  -1  1307.2    65.4   2
   5  30   1     0.6    45.5   2
   5  30   2  -141.7    60.6   2
   5  30   3  1218.6    77.3   2
   5  30   4  -106.3    65.0   2
   5  30   6   661.8    67.7   2
   5  30   7     7.3    67.7   2
   5  30   8   448.9    99.5   2
   5  30   9    73.1   112.4   2
   5  30  11  -325.5   137.9   2
   5  31 -15   519.1   139.9   2
   5  31 -14    12.7   113.4   2
   5  31 -13  -143.0   116.9   2
   5  31 -11   603.5    73.6   2
   5  31  -9   -16.7    80.9   2
   5  31  -8   436.4    77.8   2
   5  31  -7   312.0    69.5   2
   5  31  -6    44.0    65.9   2
   5  31  -4   759.9    56.2   2
   5  31  -3   171.2    65.1   2
   5  31  -2   539.1    66.3   2
   5  31  -1   -66.2    65.0   2
   5  31   1   -91.2    50.2   2
   5  31   2   279.0    74.6   2
   5  31   3   -77.8    72.1   2
   5  31   4   149.7    79.4   2
   5  31   6    13.5    69.3   2
   5  31   7  -127.3    75.7   2
   5  31   8  -126.1   111.0   2
   5  31   9    -7.4   131.3   2
   5  32 -13   790.3   141.3   2
   5  32 -12  -253.0   120.6   2
   5  32 -11    47.5    83.1   2
   5  32 -10   263.4    77.1   2
   5  32  -9   163.2    95.5   2
   5  32  -8   194.2    92.9   2
   5  32  -7   286.3    81.8   2
   5  32  -6  1142.1    88.1   2
   5  32  -4   -39.2    57.7   2
   5  32  -3    46.6    76.5   2
   5  32  -2   -75.2    74.0   2
   5  32  -1  -121.7    75.8   2
   5  32   1   298.7    64.3   2
   5  32   2    59.7    83.1   2
   5  32   3  -176.5    87.7   2
   5  32   4    48.8    94.1   2
   5  32   6    70.8    79.6   2
   5  32   7   123.1    88.8   2
   5  32   9   453.4   162.2   2
   5  33 -12   138.7   107.4   2
   5  33 -11    16.3    93.5   2
   5  33  -9    93.7   111.4   2
   5  33  -8    46.3   107.1   2
   5  33  -7   -46.6   103.7   2
   5  33  -6  -114.1    90.4   2
   5  33  -4  1003.1    74.1   2
   5  33  -3    70.6    88.4   2
   5  33  -2    25.7    93.1   2
   5  33  -1    34.1    85.2   2
   5  33   1   300.8    72.7   2
   5  33   2  -122.0    97.6   2
   5  33   3  1207.1   118.9   2
   5  33   4   247.8   107.5   2
   5  33   6   -61.4    93.1   2
   5  33   7    58.9   108.0   2
   5  34 -10    19.7   144.2   2
   5  34  -9    11.9   138.5   2
   5  34  -8   211.0   126.4   2
   5  34  -7   -36.2   118.8   2
   5  34  -6   995.1    91.8   2
   5  34  -2   749.7   109.4   2
   5  34  -1  1237.9   118.8   2
   5  34   1   249.9    85.0   2
   5  34   2  1564.2   136.3   2
   5  34   3  1790.1   143.4   2
   5  34   4    99.8   132.9   2
   5  35  -8   816.1   164.5   2
   5  35  -7   488.3   150.8   2
   5  35  -6   279.6   102.2   2
   5  35  -3  1932.9   153.3   2
   5  35  -2    -9.8   126.2   2
   5  35  -1    21.0   126.2   2
   5  35   1   347.6   101.2   2
   5  35   3   793.1   156.3   2
   5  35   4   274.2   163.3   2
   5  36  -2   -72.2   158.5   2
   5  36  -1  -230.4   148.5   2
   5  36   1    27.4   117.2   2
   6   0 -25   -12.4    80.4   2
   6   0 -13    17.8    15.4   2
   6   0 -11    11.8    11.9   2
   6   0  -1     7.6     2.9   2
   6   0   1     8.5     4.1   2
   6   0   7    23.9    10.2   2
   6   0  11   -12.6    15.0   2
   6   0  13     8.7    21.7   2
   6   1 -26   246.9    78.0   2
   6   1 -25   174.4    61.1   2
   6   1 -24   284.5    48.3   2
   6   1 -23   -16.9    38.2   2
   6   1 -22   -64.1    30.1   2
   6   1 -21   107.9    25.3   2
   6   1 -20    12.2    20.5   2
   6   1 -18   -11.2    15.5   2
   6   1 -17   -12.1    13.5   2
   6   1 -16  1655.7    25.6   2
   6   1 -15  1365.1    22.8   2
   6   1 -14    65.2    12.3   2
   6   1 -13    39.8    11.7   2
   6   1 -12   426.7    12.3   2
   6   1 -11   137.7    10.7   2
   6   1 -10  1034.9    18.0   2
   6   1  -9   308.2    11.1   2
   6   1  -8  2229.5    27.8   2
   6   1  -7     9.4     5.7   2
   6   1  -6  1907.9    24.4   2
   6   1  -5    20.7     4.6   2
   6   1  -4    20.4     3.9   2
   6   1  -3   398.2     5.1   2
   6   1  -2  1308.8    16.5   2
   6   1  -1  1719.0    23.7   2
   6   1   0    15.2     3.0   2
   6   1   1   510.1     7.0   2
   6   1   2    26.7     4.0   2
   6   1   3   275.3     6.2   2
   6   1   4    73.8     4.8   2
   6   1   5    22.4     5.5   2
   6   1   6    -2.6     7.1   2
   6   1   7  3163.8    32.4   2
   6   1   8  2302.1    26.2   2
   6   1   9   247.3    12.2   2
   6   1  10   448.0    14.4   2
   6   1  11   945.1    20.0   2
   6   1  12   570.7    19.3   2
   6   1  13    81.4    15.9   2
   6   1  14    -9.3    19.1   2
   6   1  15   401.8    19.9   2
   6   1  16    28.1    21.2   2
   6   1  17    36.4    26.7   2
   6   1  18   939.3    38.1   2
   6   1  19    90.5    42.3   2
   6   1  20   187.8    54.3   2
   6   1  21   560.5    70.3   2
   6   1  22   412.8    90.3   2
   6   2 -25   634.8    57.0   2
   6   2 -23  1024.1    39.6   2
   6   2 -21    99.5    23.1   2
   6   2 -19   152.7    16.9   2
   6   2 -17   968.6    20.5   2
   6   2 -15   930.3    20.0   2
   6   2 -13   714.0    16.5   2
   6   2 -11  2669.7    37.8   2
   6   2  -9   853.4    16.5   2
   6   2  -7    97.0     5.6   2
   6   2  -5   202.5     5.4   2
   6   2  -3    28.4     3.2   2
   6   2  -1  1491.8    29.8   2
   6   2   1    49.4     3.6   2
   6   2   3   268.8     6.6   2
   6   2   5  1909.7    31.6   2
   6   2   7  2503.1    28.8   2
   6   2   9  3154.4    35.6   2
   6   2  11    57.1    13.5   2
   6   2  13     1.9    17.4   2
   6   2  15    50.7    18.0   2
   6   2  17   317.8    27.9   2
   6   2  19   716.2    40.5   2
   6   2  21   235.2    69.1   2
   6   3 -26   173.1    82.8   2
   6   3 -25  -175.0    60.4   2
   6   3 -23   586.9    44.4   2
   6   3 -22   936.3    38.3   2
   6   3 -20    15.5    17.0   2
   6   3 -19    83.5    15.2   2
   6   3 -17   266.8    14.5   2
   6   3 -16  5371.1    55.5   2
   6   3 -14   110.6    11.8   2
   6   3 -13  1008.4    23.7   2
   6   3 -11   900.5    16.7   2
   6   3 -10    93.5    10.2   2
   6   3  -8     6.4     6.6   2
   6   3  -7    33.6     6.3   2
   6   3  -5   934.4    13.8   2
   6   3  -4  1394.2    13.4   2
   6   3   1   883.4    12.5   2
   6   3   2   242.0     5.0   2
   6   3   4    32.8     6.0   2
   6   3   5   817.5    13.1   2
   6   3   7   549.2    11.7   2
   6   3   8  3815.4    36.3   2
   6   3  10    14.8    11.3   2
   6   3  11    82.7    12.8   2
   6   3  13   452.7    20.2   2
   6   3  14   123.7    19.1   2
   6   3  16    52.7    28.0   2
   6   3  17   643.2    32.3   2
   6   3  19   -40.4    37.8   2
   6   3  20   108.0    47.1   2
   6   3  22   373.2    88.6   2
   6   4 -25   -96.7    51.2   2
   6   4 -23    51.8    30.3   2
   6   4 -21   -45.4    20.8   2
   6   4 -19  1264.2    23.9   2
   6   4 -17   -17.2    12.2   2
   6   4 -15   174.5    13.5   2
   6   4 -13   303.9    13.7   2
   6   4 -11   667.3    13.8   2
   6   4  -9    45.4     7.4   2
   6   4  -7    39.5     5.7   2
   6   4  -5   952.9    11.6   2
   6   4  -3  2244.7    86.7   2
   6   4   1    51.9     5.8   2
   6   4   3  1086.8    13.5   2
   6   4   5   101.0     7.1   2
   6   4   7   409.2    11.9   2
   6   4   9  2695.4    31.5   2
   6   4  11  2933.3    35.9   2
   6   4  13   566.8    21.4   2
   6   4  15   -31.1    24.7   2
   6   4  17   994.9    39.7   2
   6   4  19     1.7    43.0   2
   6   4  21  -187.6    63.1   2
   6   5 -26   -49.5    77.0   2
   6   5 -25   -97.0    52.0   2
   6   5 -23   204.7    85.8   2
   6   5 -22   206.8    30.5   2
   6   5 -21   -36.6    24.5   2
   6   5 -20   299.7    21.5   2
   6   5 -19    42.3    17.2   2
   6   5 -18  1411.7    23.3   2
   6   5 -17   388.7    19.3   2
   6   5 -16   495.2    15.4   2
   6   5 -15    37.8    13.1   2
   6   5 -14  4215.9    41.9   2
   6   5 -13     6.3    11.0   2
   6   5 -12    28.7     9.8   2
   6   5 -10   193.4     9.6   2
   6   5  -9   691.0    13.6   2
   6   5  -8   182.9     8.1   2
   6   5  -7    28.8     5.8   2
   6   5  -6   150.9     6.1   2
   6   5  -5    37.7     3.8   2
   6   5  -4  1516.6    18.3   2
   6   5  -3  3035.2    65.5   2
   6   5   1    15.4     7.6   2
   6   5   2    66.7     4.7   2
   6   5   3    27.3     6.1   2
   6   5   4   718.4    15.6   2
   6   5   5    -6.6     8.6   2
   6   5   6     7.9    13.8   2
   6   5   7   827.1    17.0   2
   6   5   8  2256.9    30.8   2
   6   5   9   212.4    13.3   2
   6   5  10   184.4    14.8   2
   6   5  11  3153.7    41.8   2
   6   5  12   647.3    20.1   2
   6   5  13   312.6    19.7   2
   6   5  14    91.3    21.5   2
   6   5  15    55.7    26.0   2
   6   5  16   111.2    33.9   2
   6   5  17   499.0    43.5   2
   6   5  18    87.3    52.0   2
   6   5  19    53.2    42.0   2
   6   5  20   -93.0    50.1   2
   6   5  21   128.1    65.5   2
   6   6 -13   558.8    16.2   2
   6   6 -11   463.2    12.7   2
   6   6  -7   960.9    16.1   2
   6   6  -5  2589.6    29.3   2
   6   6   1   113.2     8.5   2
   6   6   5   434.4    12.0   2
   6   6   7  1033.7    17.7   2
   6   6  13   571.6    53.2   2
   6   6  17   217.8    67.0   2
   6   7 -26   -33.2    79.1   2
   6   7 -25  1163.7    69.7   2
   6   7 -24   133.4    49.1   2
   6   7 -23   189.0    39.5   2
   6   7 -22   732.1    35.6   2
   6   7 -21   551.5    29.0   2
   6   7 -20   157.0    22.6   2
   6   7 -19    44.3    18.3   2
   6   7 -18   390.5   106.0   2
   6   7 -17   716.7    17.8   2
   6   7 -16  1456.4    20.9   2
   6   7 -15   185.7    12.4   2
   6   7 -14   871.4    18.4   2
   6   7 -12  3972.2    55.1   2
   6   7 -11   989.0    17.9   2
   6   7 -10     7.2     9.2   2
   6   7  -9   106.5     9.5   2
   6   7  -8   666.1    13.6   2
   6   7  -7   314.8    10.1   2
   6   7  -6     2.0     6.3   2
   6   7  -5   309.5     7.3   2
   6   7  -4    97.3     5.3   2
   6   7  -3   203.2     8.2   2
   6   7  -2    45.5     8.7   2
   6   7   1  1161.3    22.9   2
   6   7   2   148.4     6.0   2
   6   7   3    45.0     7.5   2
   6   7   4    65.9     9.0   2
   6   7   5   353.8    16.1   2
   6   7   6   511.3    21.5   2
   6   7   7   351.5    19.8   2
   6   7   8   124.8    14.0   2
   6   7   9   374.3    15.8   2
   6   7  10   578.9    17.3   2
   6   7  11    66.7    14.7   2
   6   7  12   335.2    18.5   2
   6   7  13  1125.9    28.6   2
   6   7  14    43.7    22.3   2
   6   7  15  1702.1    41.4   2
   6   7  16   -38.3    31.9   2
   6   7  17   598.2    47.8   2
   6   7  18   307.4    58.5   2
   6   7  19   133.6    75.8   2
   6   7  20   278.8    82.0   2
   6   7  21   233.2   107.4   2
   6   8 -25   100.1    65.2   2
   6   8 -23   392.4    42.3   2
   6   8 -21  2427.6    44.4   2
   6   8 -19   511.9    22.0   2
   6   8 -17   728.5    17.4   2
   6   8 -15    18.7    11.1   2
   6   8 -13   124.5    10.9   2
   6   8 -11   127.8    11.3   2
   6   8  -9   387.1    10.9   2
   6   8  -7   341.7     8.7   2
   6   8  -5   264.3     7.8   2
   6   8  -3   153.5     7.4   2
   6   8  -1    54.0     9.8   2
   6   8   1    99.4     8.7   2
   6   8   3    30.3     9.4   2
   6   8   5   139.0    12.9   2
   6   8   7     0.4    14.8   2
   6   8   9    -3.8    14.6   2
   6   8  11   229.6    18.0   2
   6   8  13   681.3    24.7   2
   6   8  15   373.8    30.9   2
   6   8  17    60.2    41.2   2
   6   8  19   340.7    79.9   2
   6   8  21    -3.2   118.4   2
   6   9 -26  -177.5    87.5   2
   6   9 -25   -98.3    68.9   2
   6   9 -23   169.3    45.2   2
   6   9 -22   -55.1    36.7   2
   6   9 -20   987.7    28.2   2
   6   9 -19   340.2    20.4   2
   6   9 -17   863.7    18.0   2
   6   9 -16   755.7    17.3   2
   6   9 -14  1961.5    23.0   2
   6   9 -13   261.7    11.9   2
   6   9 -11   723.9    14.5   2
   6   9 -10   101.7     9.1   2
   6   9  -8  1581.4    24.6   2
   6   9  -7    18.8     8.8   2
   6   9  -5    16.4     7.3   2
   6   9  -4    11.6     5.9   2
   6   9  -2   234.4    10.0   2
   6   9  -1   439.2    14.0   2
   6   9   1  1300.4    26.0   2
   6   9   2    58.2     6.3   2
   6   9   4  1234.1    21.5   2
   6   9   5  1678.7    27.8   2
   6   9   7  5069.3    65.8   2
   6   9   8    36.3    14.4   2
   6   9  10   217.9    17.9   2
   6   9  11     4.4    19.0   2
   6   9  13  1584.4    34.1   2
   6   9  14    -9.8    25.1   2
   6   9  16    67.1    35.4   2
   6   9  17    26.8    44.4   2
   6   9  19   -61.2    79.4   2
   6   9  20   147.9    97.6   2
   6  10 -25   133.5    74.2   2
   6  10 -23   -63.1    41.4   2
   6  10 -21   -39.4    28.3   2
   6  10 -19    32.2    18.6   2
   6  10 -17   -12.5    14.6   2
   6  10 -15   166.1    12.7   2
   6  10 -13    29.1    11.2   2
   6  10 -11   921.7    19.2   2
   6  10  -9   150.6    10.8   2
   6  10  -7   578.5    14.4   2
   6  10  -5   276.0    10.5   2
   6  10  -3    64.1     6.1   2
   6  10  -1    76.8     8.9   2
   6  10   1    80.5     7.7   2
   6  10   3   985.8    24.1   2
   6  10   5   478.8    18.9   2
   6  10   7   896.1    22.0   2
   6  10   9   538.3    21.9   2
   6  10  11   -32.3    20.6   2
   6  10  13  1027.8    37.4   2
   6  10  15    22.8    31.8   2
   6  10  17   571.3    52.6   2
   6  10  19     4.8    66.4   2
   6  10  21   -18.5   132.2   2
   6  11 -25  -143.3    68.9   2
   6  11 -24   -61.3    55.1   2
   6  11 -23   208.6    47.7   2
   6  11 -22   275.5    53.5   2
   6  11 -21   461.3    32.2   2
   6  11 -20   -12.6    22.5   2
   6  11 -19   626.4    22.4   2
   6  11 -18    64.2    17.8   2
   6  11 -16   383.4    16.8   2
   6  11 -15   386.7    14.4   2
   6  11 -14    55.8    13.0   2
   6  11 -13  2153.9    28.3   2
   6  11 -12  2243.2    44.6   2
   6  11 -11    61.9    12.9   2
   6  11 -10  2241.1    36.8   2
   6  11  -9    12.4    12.3   2
   6  11  -8    65.4    10.0   2
   6  11  -7     9.4     9.5   2
   6  11  -5   251.9    13.3   2
   6  11  -4    22.2     8.4   2
   6  11  -3   393.1    10.6   2
   6  11  -2    48.7     6.9   2
   6  11  -1   278.4    10.4   2
   6  11   0   521.8    17.3   2
   6  11   1  1678.8    24.9   2
   6  11   2   742.9    15.7   2
   6  11   3   137.4    13.0   2
   6  11   4  3984.5    57.7   2
   6  11   5  1759.3    40.2   2
   6  11   6  4801.3   104.6   2
   6  11   7   343.2    19.6   2
   6  11   8   943.2    28.0   2
   6  11   9   464.7    21.0   2
   6  11  10    15.1    16.8   2
   6  11  11    82.0    22.2   2
   6  11  12   413.8    40.2   2
   6  11  13   116.4    30.6   2
   6  11  14    15.4    35.8   2
   6  11  15   266.8    42.9   2
   6  11  16    18.0    44.2   2
   6  11  17   929.7    62.6   2
   6  11  18   226.4    59.9   2
   6  11  19   -78.1    72.9   2
   6  11  20   -45.5    90.6   2
   6  12 -25   156.2    85.2   2
   6  12 -23  1037.6    55.7   2
   6  12 -19   -22.6    21.7   2
   6  12 -17    48.1    17.6   2
   6  12 -13    90.3    12.9   2
   6  12 -11   797.8    21.6   2
   6  12  -7    80.1    13.3   2
   6  12  -5   255.3    12.9   2
   6  12  -1   127.7    10.1   2
   6  12   1   114.9    11.5   2
   6  12   5  1811.9    34.6   2
   6  12   7    -5.1    18.5   2
   6  12  11   339.4    21.7   2
   6  12  13   170.3    46.1   2
   6  12  19   334.0   108.9   2
   6  13 -25   -16.3    97.6   2
   6  13 -24    23.3    70.4   2
   6  13 -23   -78.5    52.5   2
   6  13 -22   -63.1    37.2   2
   6  13 -21   395.0    35.2   2
   6  13 -20   478.2    33.8   2
   6  13 -18   392.7    50.4   2
   6  13 -17   -11.9    18.5   2
   6  13 -16   492.0    17.9   2
   6  13 -15    44.1    14.9   2
   6  13 -14   230.8    16.2   2
   6  13 -13    74.2    14.3   2
   6  13 -12   265.5    19.8   2
   6  13 -11   172.3    14.6   2
   6  13 -10    20.9    13.4   2
   6  13  -9   328.7    14.6   2
   6  13  -8   159.5    16.5   2
   6  13  -7  1606.7    27.8   2
   6  13  -5  2335.9    34.4   2
   6  13  -4   119.6    11.7   2
   6  13  -3    27.7    12.2   2
   6  13  -2   591.7    17.1   2
   6  13  -1  1517.8    27.7   2
   6  13   1   802.4    22.7   2
   6  13   2    43.2    12.3   2
   6  13   3   193.5    17.1   2
   6  13   4    66.9    14.3   2
   6  13   5   351.0    19.0   2
   6  13   6    19.2    20.4   2
   6  13   7   336.8    24.3   2
   6  13   8    42.4    19.5   2
   6  13   9   -21.6    19.9   2
   6  13  10   149.5    20.5   2
   6  13  11   246.0    23.3   2
   6  13  12   158.3    35.5   2
   6  13  14    90.5    42.1   2
   6  13  15   -81.5    49.0   2
   6  13  16   109.2    58.1   2
   6  13  17  1236.1    82.6   2
   6  13  18    57.6    65.5   2
   6  13  19   465.7    86.8   2
   6  13  20   -70.8   106.9   2
   6  14 -25   476.0    91.4   2
   6  14 -23  -165.5    53.9   2
   6  14 -21     1.8    40.7   2
   6  14 -19   703.8    33.4   2
   6  14 -17    16.3    20.7   2
   6  14 -15    15.9    14.1   2
   6  14 -13   693.9    20.2   2
   6  14 -11   395.8    19.3   2
   6  14  -9  2646.8    46.5   2
   6  14  -7     3.6    12.6   2
   6  14  -5  1636.2    25.9   2
   6  14  -3    76.3    18.1   2
   6  14  -1  1024.9    26.9   2
   6  14   1    57.1    16.1   2
   6  14   3   831.6    23.4   2
   6  14   5    12.1    18.0   2
   6  14   7  1539.3    34.6   2
   6  14   9    45.9    21.4   2
   6  14  11   204.5    24.1   2
   6  14  13     3.6    28.6   2
   6  14  15    24.6    51.9   2
   6  14  17   -80.1    77.2   2
   6  14  19   132.3   117.7   2
   6  15 -23    50.6    66.7   2
   6  15 -22    86.9    54.1   2
   6  15 -20   629.9    40.5   2
   6  15 -19   175.6    31.6   2
   6  15 -17   405.7    22.7   2
   6  15 -16    22.2    16.9   2
   6  15 -14    54.7    15.6   2
   6  15 -13   111.6    17.1   2
   6  15 -11   -32.3    17.0   2
   6  15 -10  1505.5    36.5   2
   6  15  -8  1063.2    21.1   2
   6  15  -7   658.0    17.9   2
   6  15  -5   172.2    14.7   2
   6  15  -4   537.7    16.4   2
   6  15  -2  1486.4    32.0   2
   6  15  -1  1197.3    27.6   2
   6  15   1   966.0    32.3   2
   6  15   2  4636.4    82.3   2
   6  15   4  1438.6    33.2   2
   6  15   5    15.4    18.6   2
   6  15   7  1078.0    31.8   2
   6  15   8    44.1    20.2   2
   6  15  10   330.0    26.9   2
   6  15  11   784.5    34.5   2
   6  15  13   -19.3    31.6   2
   6  15  14   455.5    38.5   2
   6  15  16   640.4    74.4   2
   6  15  17   182.9    90.5   2
   6  15  19   -22.1   133.5   2
   6  16 -23    19.1    73.5   2
   6  16 -21   -43.8    48.7   2
   6  16 -19   151.8    34.2   2
   6  16 -17   -22.5    20.2   2
   6  16 -15   155.7    19.6   2
   6  16 -13    89.8    17.3   2
   6  16 -11    21.0    15.7   2
   6  16  -9   724.1    21.3   2
   6  16  -7    10.9    15.8   2
   6  16  -5   108.9    16.4   2
   6  16  -3     2.9    15.9   2
   6  16  -1   127.6    18.7   2
   6  16   1   698.0    25.7   2
   6  16   3  2114.8    58.8   2
   6  16   5    12.2    25.1   2
   6  16   7   689.5    28.5   2
   6  16   9    77.3    24.4   2
   6  16  11    71.0    30.5   2
   6  16  13   -63.0    34.5   2
   6  16  15  -179.8    61.8   2
   6  16  17  -309.9    96.2   2
   6  16  19   387.1   150.6   2
   6  17 -24   117.9   105.1   2
   6  17 -22   106.9    65.0   2
   6  17 -21  -124.9    45.6   2
   6  17 -20   788.3    50.0   2
   6  17 -19   -25.3    33.2   2
   6  17 -18    20.8    26.0   2
   6  17 -17    90.2    29.9   2
   6  17 -16   173.7    21.1   2
   6  17 -15    22.3    18.2   2
   6  17 -14    40.9    18.5   2
   6  17 -13   345.9    20.2   2
   6  17 -11     3.2    43.3   2
   6  17 -10   541.4    20.5   2
   6  17  -9   258.0    17.2   2
   6  17  -8  1620.2    28.1   2
   6  17  -7   906.0    25.9   2
   6  17  -5    30.6    15.0   2
   6  17  -4  4400.2    73.5   2
   6  17  -3   270.6    23.9   2
   6  17  -2    44.5    17.1   2
   6  17  -1    47.4    20.4   2
   6  17   1   139.5    19.2   2
   6  17   2  1155.5    31.3   2
   6  17   3   269.3    20.8   2
   6  17   4    60.9    19.5   2
   6  17   6    60.1    26.5   2
   6  17   7    -6.1    21.5   2
   6  17   8   190.7    22.5   2
   6  17   9  1069.7    34.8   2
   6  17  10    16.1    29.2   2
   6  17  11    13.9    34.1   2
   6  17  12    -4.2    51.1   2
   6  17  13   173.1    37.2   2
   6  17  14   653.3    47.6   2
   6  17  15   131.5    51.6   2
   6  17  18  1430.3   144.0   2
   6  17  19  -144.5   167.3   2
   6  18 -23  1325.9   101.6   2
   6  18 -19    71.7    41.7   2
   6  18 -17    82.1    27.1   2
   6  18 -13    33.3    19.8   2
   6  18 -11   -28.6    17.8   2
   6  18  -7    -7.8    17.9   2
   6  18  -5    30.0    18.3   2
   6  18  -1  1043.0    28.7   2
   6  18   1    86.8    21.3   2
   6  18   5   175.7    24.6   2
   6  18   7   221.8    29.4   2
   6  18  11    48.5    45.9   2
   6  18  13   976.1    56.4   2
   6  18  17  -128.6   110.9   2
   6  19 -23   870.9    93.3   2
   6  19 -22   811.1    76.7   2
   6  19 -21  1257.3    66.5   2
   6  19 -20   249.9    50.0   2
   6  19 -18    26.1    28.2   2
   6  19 -17   -37.9    26.4   2
   6  19 -16  1025.6    32.4   2
   6  19 -15    78.6    22.7   2
   6  19 -14   618.1    25.2   2
   6  19 -13    83.1    20.1   2
   6  19 -12   -11.8    28.0   2
   6  19 -11   -18.0    18.2   2
   6  19 -10   844.8    23.2   2
   6  19  -9     6.5    18.5   2
   6  19  -8    47.1    19.3   2
   6  19  -7   261.4    19.5   2
   6  19  -5   856.4    27.1   2
   6  19  -4     0.4    19.3   2
   6  19  -2   822.1    29.0   2
   6  19  -1  1559.2    37.5   2
   6  19   1  1993.5    42.0   2
   6  19   2     2.9    22.8   2
   6  19   3   429.4    25.6   2
   6  19   4   -20.1    22.8   2
   6  19   5   -13.0    22.3   2
   6  19   6   218.8    49.1   2
   6  19   7   840.4    31.8   2
   6  19   8  1673.1    39.9   2
   6  19   9  1430.8    39.4   2
   6  19  10   181.5    37.1   2
   6  19  11   -42.3    42.8   2
   6  19  12   -13.6    45.8   2
   6  19  14   -55.6    52.6   2
   6  19  15   -44.4    60.1   2
   6  19  16   300.1    73.5   2
   6  20 -21   319.3    67.3   2
   6  20 -19    83.1    38.4   2
   6  20 -17    80.9    31.3   2
   6  20 -15   211.4    28.0   2
   6  20 -13   823.4    25.5   2
   6  20 -11    84.5    20.6   2
   6  20  -9   104.4    19.6   2
   6  20  -7    67.0    22.9   2
   6  20  -5   307.4    22.3   2
   6  20  -3   100.3    34.1   2
   6  20  -1   406.8    23.2   2
   6  20   1   874.9    28.6   2
   6  20   3   287.8    27.0   2
   6  20   5   280.0    26.7   2
   6  20   7    12.3    27.3   2
   6  20   9    14.9    28.5   2
   6  20  11    48.0    47.3   2
   6  20  13  1440.0    74.9   2
   6  20  15   835.2    71.6   2
   6  20  17  -136.1    98.6   2
   6  21 -22   590.1    92.0   2
   6  21 -20   768.3    49.5   2
   6  21 -19    83.2    43.5   2
   6  21 -17    37.1    35.3   2
   6  21 -16  1024.9    38.1   2
   6  21 -14    67.1    27.0   2
   6  21 -13  1825.0    36.2   2
   6  21 -11  1102.1    33.4   2
   6  21 -10   452.0    24.0   2
   6  21  -8   917.2    25.2   2
   6  21  -7  2091.0    37.9   2
   6  21  -5   889.0    30.6   2
   6  21  -4    -5.0    22.5   2
   6  21  -2   317.0    28.0   2
   6  21  -1   146.7    23.2   2
   6  21   1    53.9    23.9   2
   6  21   2    81.9    23.9   2
   6  21   4   134.2    22.6   2
   6  21   5  1629.6    43.4   2
   6  21   7    34.0    30.6   2
   6  21   8   722.6    40.2   2
   6  21  10    85.0    35.0   2
   6  21  11   -91.7    50.7   2
   6  21  13   403.6    71.6   2
   6  21  14   332.3    82.8   2
   6  21  16   565.9    91.6   2
   6  21  17  -278.4   105.6   2
   6  22 -21   -43.9    61.7   2
   6  22 -19   174.4    52.7   2
   6  22 -17   542.9    64.8   2
   6  22 -15   626.7    38.8   2
   6  22 -13    83.6    25.2   2
   6  22 -11   947.5    31.8   2
   6  22  -9   105.9    22.5   2
   6  22  -7   512.8    25.7   2
   6  22  -5   -19.8    22.3   2
   6  22  -1   934.1    28.8   2
   6  22   1   442.5    26.5   2
   6  22   3   -31.3    26.2   2
   6  22   5   100.9    33.4   2
   6  22   7   117.9    34.8   2
   6  22   9   -46.7    35.0   2
   6  22  15  1356.1   119.8   2
   6  23 -21    76.8    67.3   2
   6  23 -20   -77.5    69.4   2
   6  23 -19   384.8    61.2   2
   6  23 -18    88.5    47.6   2
   6  23 -17   362.8    43.3   2
   6  23 -16   804.4    45.3   2
   6  23 -15   -71.4    38.0   2
   6  23 -14    44.1    30.5   2
   6  23 -13  1635.9    46.5   2
   6  23 -10  1047.1    34.6   2
   6  23  -9   653.7    28.5   2
   6  23  -8   368.1    27.7   2
   6  23  -7    99.9    25.5   2
   6  23  -5   199.7    26.1   2
   6  23  -4    32.1    21.3   2
   6  23  -3    -0.5    27.2   2
   6  23  -2  1105.3    34.2   2
   6  23  -1   588.1    28.7   2
   6  23   1   -59.4    26.5   2
   6  23   2   542.3    30.3   2
   6  23   3  2028.2    58.0   2
   6  23   4   438.7    29.2   2
   6  23   5   -36.0    27.9   2
   6  23   7   196.9    41.0   2
   6  23   8   -11.8    43.3   2
   6  23   9   301.7    50.2   2
   6  23  10  2341.8    66.2   2
   6  23  12   786.3    79.3   2
   6  23  13   433.1    90.2   2
   6  23  15   844.0   128.0   2
   6  24 -19   228.3    70.9   2
   6  24 -17   -62.2    47.4   2
   6  24 -13   286.8    39.5   2
   6  24 -11   151.0    32.9   2
   6  24  -7   -27.8    27.2   2
   6  24  -5   647.6    32.3   2
   6  24  -1   471.4    29.9   2
   6  24   1   488.1    32.5   2
   6  24   5   147.6    30.6   2
   6  24   7   869.8    51.5   2
   6  24  11   818.6    61.2   2
   6  24  13    35.9    98.0   2
   6  25 -20   280.8    96.3   2
   6  25 -19    67.8    85.3   2
   6  25 -18   573.1    66.0   2
   6  25 -17   727.5    59.3   2
   6  25 -16    25.0    48.7   2
   6  25 -15    -0.2    43.8   2
   6  25 -14   219.3    46.5   2
   6  25 -13   165.6    43.9   2
   6  25 -11   -12.8    38.2   2
   6  25 -10    -5.3    35.2   2
   6  25  -9   301.5    31.8   2
   6  25  -8    46.0    32.9   2
   6  25  -7   426.2    33.2   2
   6  25  -5   320.7    27.2   2
   6  25  -4   -26.0    26.0   2
   6  25  -3   377.6    40.3   2
   6  25  -2  1897.9    48.0   2
   6  25  -1    71.6    29.8   2
   6  25   1    45.5    32.3   2
   6  25   2    82.3    33.3   2
   6  25   4   -62.6    36.2   2
   6  25   5   488.3    36.8   2
   6  25   7  3306.3    91.5   2
   6  25   8  1097.7    64.5   2
   6  25   9   -71.5    60.1   2
   6  25  10    45.1    68.3   2
   6  25  11  2959.6    94.0   2
   6  25  14   273.3   139.5   2
   6  25  15     0.8   163.4   2
   6  26 -19    98.4    84.8   2
   6  26 -17   193.7    65.3   2
   6  26 -15   -27.3    50.2   2
   6  26 -13  2494.5   160.0   2
   6  26 -11   472.6    45.1   2
   6  26  -9   -30.0    33.3   2
   6  26  -7   131.7    40.8   2
   6  26  -5   -78.9    28.8   2
   6  26  -3    97.1    34.0   2
   6  26  -1  1092.3    42.7   2
   6  26   1   867.1    44.4   2
   6  26   5  1062.1    46.5   2
   6  26   9   219.0    70.5   2
   6  26  11   -19.9    68.7   2
   6  27 -17   810.9    71.9   2
   6  27 -16     7.4    60.9   2
   6  27 -14  -109.0    64.4   2
   6  27 -13   258.1   117.7   2
   6  27 -11   384.7    49.7   2
   6  27 -10   -25.8    39.7   2
   6  27  -8  1071.6    53.3   2
   6  27  -7   337.7    51.6   2
   6  27  -5   480.8    34.5   2
   6  27  -4   194.5    31.8   2
   6  27  -1   -54.9    37.7   2
   6  27   1   246.4    42.5   2
   6  27   2    20.7    43.6   2
   6  27   4     4.3    48.0   2
   6  27   5    13.8    42.6   2
   6  27   7   -22.7    64.3   2
   6  27   8   162.0    72.3   2
   6  27  10  -182.7    86.5   2
   6  27  11   -74.9    77.0   2
   6  28 -15  -186.6    74.9   2
   6  28 -13   -38.2    66.7   2
   6  28 -11   332.3    60.1   2
   6  28  -9  -101.0    50.8   2
   6  28  -7   -15.6    46.9   2
   6  28  -5   -31.7    35.6   2
   6  28  -3   373.7    46.8   2
   6  28  -1   549.2    48.6   2
   6  28   1    11.1    47.7   2
   6  28   5    35.5    47.0   2
   6  28   7    46.7    76.2   2
   6  28   9   -98.1    94.5   2
   6  28  11   571.7   119.9   2
   6  29 -16  -176.7    85.2   2
   6  29 -15  -181.1    90.8   2
   6  29 -14  -113.5    91.2   2
   6  29 -13   688.3    87.4   2
   6  29 -10    29.5    51.7   2
   6  29  -9   179.3    62.2   2
   6  29  -8  -147.6    56.8   2
   6  29  -7   -54.4    55.4   2
   6  29  -5   294.4    43.6   2
   6  29  -4    14.3    50.0   2
   6  29  -1  1230.7    60.3   2
   6  29   1   760.5    49.0   2
   6  29   2   878.8    64.7   2
   6  29   4    21.9    64.1   2
   6  29   5   -47.5    68.2   2
   6  29   7   -27.1    84.7   2
   6  29   8   105.0    95.4   2
   6  29   9   -33.8   108.5   2
   6  29  10  1014.1   131.5   2
   6  30 -13   231.7    98.0   2
   6  30 -11   -50.0    62.1   2
   6  30  -7    84.3    63.6   2
   6  30  -5   -31.0    46.5   2
   6  30  -1  -167.0    57.1   2
   6  30   1   210.0    49.8   2
   6  30   5   -53.8    76.2   2
   6  30   7   636.0   104.9   2
   6  30  11   111.4   164.9   2
   6  31 -14  -293.7   130.1   2
   6  31 -13  -144.5   114.8   2
   6  31 -12   270.8   108.0   2
   6  31 -11   -56.0    71.5   2
   6  31 -10  -134.8    66.4   2
   6  31  -9   645.1    86.7   2
   6  31  -8   -73.7    76.8   2
   6  31  -7   -52.4    74.3   2
   6  31  -5  1815.3    71.3   2
   6  31  -1   641.5    70.3   2
   6  31   1    41.2    57.6   2
   6  31   2   207.0    76.7   2
   6  31   4   -38.2    85.8   2
   6  31   5   284.2    91.0   2
   6  31   7  1996.7   103.0   2
   6  31   8  -229.5   132.3   2
   6  31   9   457.1   153.1   2
   6  32 -13   858.9   150.0   2
   6  32  -9  1516.7   117.4   2
   6  32  -5    87.1    61.6   2
   6  32  -1  1870.6    96.8   2
   6  32   1   119.1    65.2   2
   6  32   7   100.7    99.6   2
   6  33  -8  -164.6   112.9   2
   6  33  -7   110.7   105.2   2
   6  33  -2   558.9    99.3   2
   6  33  -1  -239.8    91.9   2
   6  33   1   747.3    82.6   2
   6  33   4  1113.0   132.0   2
   6  33   5   189.1   125.0   2
   6  33   7   808.3   119.6   2
   6  34  -9  -285.3   144.3   2
   6  34  -7   186.4   120.1   2
   6  34  -5   -45.1    83.7   2
   6  34  -1    16.2   109.5   2
   6  34   1   154.7    88.3   2
   6  35  -5   -82.8    99.5   2
   6  35  -1   862.2   144.5   2
   6  35   1     8.0   102.3   2
   6  35   3   225.0   162.7   2
   7   0 -27    26.0   140.8   2
   7   0 -20    24.4    33.7   2
   7   0 -19    32.5    30.1   2
   7   0 -18   -48.1    29.7   2
   7   0 -15   -11.0    16.6   2
   7   0 -13    15.9    16.9   2
   7   0  -8    20.2     9.0   2
   7   0  -6   305.6    10.1   2
   7   0  -5    14.4     5.6   2
   7   0  -4   366.4     7.9   2
   7   0  -3     3.4     3.6   2
   7   0  -2   203.3     5.6   2
   7   0  -1     6.8     4.4   2
   7   0   1    10.6     6.2   2
   7   0   2    25.3     7.3   2
   7   0   3    -2.6     8.8   2
   7   0   4  3588.2    85.6   2
   7   0   5    -8.8    12.5   2
   7   0   6   152.0    14.5   2
   7   0   8   429.7    18.3   2
   7   0  13    31.9    28.8   2
   7   0  15   -48.0    44.7   2
   7   0  16   330.5    58.8   2
   7   0  18    73.7    69.4   2
   7   1 -27   -40.9    96.8   2
   7   1 -26   384.7    79.5   2
   7   1 -25   196.1    61.7   2
   7   1 -24   316.5    48.8   2
   7   1 -23   220.8    38.8   2
   7   1 -22  2636.8    69.3   2
   7   1 -21   159.1    26.2   2
   7   1 -20   110.6    21.5   2
   7   1 -19   665.0    21.7   2
   7   1 -18  3243.9    33.9   2
   7   1 -17    56.1    12.8   2
   7   1 -16   220.8    13.6   2
   7   1 -15     1.8    13.4   2
   7   1 -14    -1.7    11.5   2
   7   1 -13   132.9    10.6   2
   7   1 -12  1674.4    24.5   2
   7   1 -11   532.8    14.4   2
   7   1 -10   140.0     9.7   2
   7   1  -9    41.4     8.3   2
   7   1  -8   780.7    13.0   2
   7   1  -7   482.9    11.4   2
   7   1  -6  1036.9    15.6   2
   7   1  -5    83.8     4.8   2
   7   1  -4   178.3     4.0   2
   7   1  -3   124.2     4.2   2
   7   1  -2  5648.3    66.9   2
   7   1  -1   596.8     9.1   2
   7   1   0   214.8     6.5   2
   7   1   1    -3.9     4.0   2
   7   1   2   192.4     6.7   2
   7   1   3    22.0     6.5   2
   7   1   4   172.8     7.6   2
   7   1   5   289.6     9.9   2
   7   1   6   959.7    16.6   2
   7   1   7    87.4    20.8   2
   7   1   8   216.7    14.6   2
   7   1   9  1385.6    29.6   2
   7   1  10   300.2    20.3   2
   7   1  11     5.5    22.1   2
   7   1  12    66.1    24.1   2
   7   1  13   457.0    28.6   2
   7   1  14   100.5    31.7   2
   7   1  15   -32.0    31.2   2
   7   1  16    14.4    39.4   2
   7   1  17    21.6    36.6   2
   7   1  18   -12.7    43.3   2
   7   1  19    80.5    53.8   2
   7   1  20    30.0    70.1   2
   7   1  21    80.0   124.2   2
   7   2 -27   520.2   104.0   2
   7   2 -26  -182.9    66.0   2
   7   2 -25   409.7    53.8   2
   7   2 -24   -80.1    47.9   2
   7   2 -23   192.8    39.8   2
   7   2 -22    45.5    31.1   2
   7   2 -21    94.0    26.3   2
   7   2 -20   775.5    23.8   2
   7   2 -19   882.6    22.2   2
   7   2 -18   160.5    14.9   2
   7   2 -17  2976.9    31.8   2
   7   2 -16     2.5    12.8   2
   7   2 -15   332.0    12.4   2
   7   2 -14  3370.0    47.7   2
   7   2 -13   666.5    15.2   2
   7   2 -12    12.0     9.4   2
   7   2 -11   167.8    10.3   2
   7   2 -10   490.6    12.5   2
   7   2  -9    57.4     9.8   2
   7   2  -8    57.6     7.0   2
   7   2  -7   350.4     8.5   2
   7   2  -6     4.3     5.6   2
   7   2  -5   478.3     7.8   2
   7   2  -4   312.1     5.6   2
   7   2  -3  1098.4    16.3   2
   7   2  -2   363.0    10.0   2
   7   2  -1    10.3     6.5   2
   7   2   0   495.6    14.3   2
   7   2   1    27.1     5.3   2
   7   2   2   422.8     9.5   2
   7   2   3    17.9     7.1   2
   7   2   4    35.6     7.8   2
   7   2   5  1074.9    16.6   2
   7   2   6  1794.2    31.6   2
   7   2   7   447.1    17.2   2
   7   2   8  1978.7    35.9   2
   7   2   9    14.1    15.8   2
   7   2  10   567.3    23.6   2
   7   2  11   127.2    21.1   2
   7   2  12   823.5    31.9   2
   7   2  13   737.0    31.7   2
   7   2  14    21.0    33.3   2
   7   2  15   183.0    34.5   2
   7   2  16   663.6    46.4   2
   7   2  17   477.6    38.4   2
   7   2  18    94.1    43.8   2
   7   2  19    18.3    54.5   2
   7   2  20   -51.4    69.6   2
   7   2  21  1033.5   100.3   2
   7   3 -26   808.5    74.0   2
   7   3 -25   -92.4    54.7   2
   7   3 -24    29.0    43.0   2
   7   3 -23   567.9    38.6   2
   7   3 -22   127.6    26.7   2
   7   3 -21    67.3    26.9   2
   7   3 -20    -9.7    17.9   2
   7   3 -19   542.0    18.7   2
   7   3 -18   -19.2    14.5   2
   7   3 -17   487.9    15.6   2
   7   3 -16  1192.6    20.7   2
   7   3 -15   175.3    13.4   2
   7   3 -14     3.4    10.9   2
   7   3 -13   207.8    11.4   2
   7   3 -12  1817.2    23.1   2
   7   3 -11    23.3     8.7   2
   7   3 -10    44.6     7.8   2
   7   3  -9  1645.4    22.4   2
   7   3  -8   306.4     9.8   2
   7   3  -7   162.7     8.4   2
   7   3  -6   141.3     6.0   2
   7   3  -5  1489.8    13.0   2
   7   3  -4    11.4     4.7   2
   7   3  -3    76.7     6.3   2
   7   3  -2    20.4     5.9   2
   7   3  -1  1316.8    25.9   2
   7   3   1    98.1     6.8   2
   7   3   2    26.4     5.8   2
   7   3   3   100.5     7.0   2
   7   3   4  1375.2    19.3   2
   7   3   5  1539.9    30.6   2
   7   3   6   167.1    11.3   2
   7   3   7   611.7    19.6   2
   7   3   8    83.4    16.8   2
   7   3   9  1746.5    31.6   2
   7   3  10   236.0    18.8   2
   7   3  11    32.1    21.9   2
   7   3  12    -3.3    21.7   2
   7   3  13    15.3    22.8   2
   7   3  14  1165.4    44.9   2
   7   3  15   183.4    35.5   2
   7   3  16    -1.6    35.1   2
   7   3  17    70.9    40.3   2
   7   3  18    62.4    46.7   2
   7   3  19   648.7    58.5   2
   7   3  20  -120.3    70.2   2
   7   3  21  -114.0    93.3   2
   7   4 -26  -133.8    64.1   2
   7   4 -24   558.6    38.8   2
   7   4 -23  1061.9    35.8   2
   7   4 -22    69.0    24.4   2
   7   4 -20    11.4    18.2   2
   7   4 -19    68.5    15.7   2
   7   4 -18  3125.5    46.2   2
   7   4 -17   -16.7    12.5   2
   7   4 -16    81.3    10.8   2
   7   4 -15   109.4    13.1   2
   7   4 -14  4387.0    81.5   2
   7   4 -13   266.7    12.2   2
   7   4 -12   587.1    15.2   2
   7   4 -11   509.2    13.9   2
   7   4 -10    89.2     9.6   2
   7   4  -9   353.3    11.1   2
   7   4  -8   489.6    11.9   2
   7   4  -7     5.9     7.2   2
   7   4  -6    56.0     5.3   2
   7   4  -5    97.9     4.8   2
   7   4  -4    80.3     7.0   2
   7   4  -3   443.2    12.2   2
   7   4  -2  1207.7    26.4   2
   7   4  -1     4.5     7.0   2
   7   4   1   842.0    18.4   2
   7   4   2    25.3     6.6   2
   7   4   3  1829.3    24.6   2
   7   4   4    27.0    10.4   2
   7   4   5   102.6    11.7   2
   7   4   6  7202.2    81.6   2
   7   4   7  4713.8    60.9   2
   7   4   8  2342.1    39.7   2
   7   4   9   308.5    19.3   2
   7   4  10  1191.7    28.2   2
   7   4  11    23.7    19.3   2
   7   4  12   101.6    22.7   2
   7   4  13    20.4    23.9   2
   7   4  14   226.4    30.0   2
   7   4  15   231.9    36.0   2
   7   4  16   821.4    41.8   2
   7   4  17   343.6    43.4   2
   7   4  18   -65.7    50.8   2
   7   4  19   -84.4    67.7   2
   7   4  20   806.1    75.7   2
   7   4  21    39.3   118.3   2
   7   5 -26   -54.2    59.3   2
   7   5 -25    -0.6    47.1   2
   7   5 -24   -48.1    40.3   2
   7   5 -23   470.7    35.4   2
   7   5 -22   298.6    28.1   2
   7   5 -21    46.5    22.6   2
   7   5 -20   420.4    21.0   2
   7   5 -19   532.0    18.6   2
   7   5 -18   127.5    14.5   2
   7   5 -17    -7.5    12.8   2
   7   5 -16   378.5    12.7   2
   7   5 -15    -9.4    10.6   2
   7   5 -14   533.8    15.1   2
   7   5 -13   567.7    15.1   2
   7   5 -12  1917.3    40.6   2
   7   5 -11    57.7    11.6   2
   7   5 -10    19.6    10.0   2
   7   5  -9     9.0     9.3   2
   7   5  -8  2650.5    39.9   2
   7   5  -7    16.8     6.7   2
   7   5  -6   196.3     7.7   2
   7   5  -5    79.2     5.7   2
   7   5  -4    22.0     7.4   2
   7   5  -3   103.9     8.2   2
   7   5  -2    28.8     8.6   2
   7   5  -1   175.5     9.5   2
   7   5   1  2603.8    42.9   2
   7   5   2   807.4    18.0   2
   7   5   3    62.2     7.4   2
   7   5   4   689.3    15.2   2
   7   5   5   362.2    14.7   2
   7   5   6   170.1    13.6   2
   7   5   7  1267.0    32.3   2
   7   5   8  6063.6    93.9   2
   7   5   9  1129.7    32.0   2
   7   5  10  1458.2    33.4   2
   7   5  11   303.1    23.6   2
   7   5  12   106.8    27.1   2
   7   5  13    62.7    26.8   2
   7   5  14   233.5    25.8   2
   7   5  15    44.1    29.2   2
   7   5  16   141.8    46.0   2
   7   5  17   -74.1    53.8   2
   7   5  18   -81.8    71.4   2
   7   5  19   493.0    71.5   2
   7   5  20   639.5    92.2   2
   7   5  21   -26.8    96.1   2
   7   6 -26   644.9    78.4   2
   7   6 -25   -20.9    58.6   2
   7   6 -24   378.7    47.9   2
   7   6 -23   274.0    39.5   2
   7   6 -22   -17.1    30.5   2
   7   6 -20    -6.0    25.2   2
   7   6 -19     2.8    17.7   2
   7   6 -18  1614.3    24.0   2
   7   6 -17    21.7    12.8   2
   7   6 -16   161.1    12.4   2
   7   6 -15    34.2    11.4   2
   7   6 -14    17.1    11.8   2
   7   6 -12   226.4    12.2   2
   7   6 -11   749.4    16.8   2
   7   6 -10   771.4    16.2   2
   7   6  -9    29.0     8.4   2
   7   6  -8    77.4     8.1   2
   7   6  -7   142.7    10.2   2
   7   6  -6   510.0    10.8   2
   7   6  -5   156.5     7.1   2
   7   6  -4   468.1    13.4   2
   7   6  -3    14.8     8.2   2
   7   6  -2   708.0    17.7   2
   7   6  -1   144.4     9.2   2
   7   6   1   273.6    11.7   2
   7   6   2  1905.3    31.4   2
   7   6   3   510.0    10.9   2
   7   6   4  2598.9    35.3   2
   7   6   5   406.3    14.3   2
   7   6   6  1200.1    30.0   2
   7   6   7  2873.0    54.9   2
   7   6   8   345.7    19.1   2
   7   6   9  1844.2    32.8   2
   7   6  10  1044.8    24.8   2
   7   6  11  1427.6    31.2   2
   7   6  12   -23.3    19.1   2
   7   6  14   -27.9    32.3   2
   7   6  15   -54.4    32.5   2
   7   6  16   -90.3    34.9   2
   7   6  17   126.7    58.1   2
   7   6  18    -5.2    75.7   2
   7   6  19   107.3    96.8   2
   7   6  20   298.6   128.8   2
   7   7 -20   157.6    31.9   2
   7   7 -19   -20.7    22.8   2
   7   7 -18   244.9    19.1   2
   7   7 -17  2130.7    36.3   2
   7   7 -16    90.7    14.5   2
   7   7 -15   -35.6    17.7   2
   7   7 -12   181.1    12.2   2
   7   7 -11  1736.5    28.0   2
   7   7 -10    47.2    11.8   2
   7   7  -9    65.6    10.8   2
   7   7  -8   220.1    11.8   2
   7   7  -6   190.8     8.2   2
   7   7  -5   183.9     9.0   2
   7   7  -4    21.5     8.3   2
   7   7  -2   207.5    11.0   2
   7   7  -1    91.2     9.1   2
   7   7   1  1292.7    28.0   2
   7   7   2    45.7    10.5   2
   7   7   3  2982.1    45.4   2
   7   7   4   925.9    21.7   2
   7   7   5  1013.7    21.9   2
   7   7   6   894.1    21.3   2
   7   7   8     8.1    17.3   2
   7   7   9   168.3    16.2   2
   7   7  10     2.6    19.0   2
   7   7  11   191.2    20.5   2
   7   7  12   172.4    28.9   2
   7   7  13  1046.1    45.1   2
   7   7  15   716.4    49.3   2
   7   7  16   201.4    50.4   2
   7   7  17   542.0    61.3   2
   7   7  18   217.0   102.4   2
   7   7  19   235.2   104.9   2
   7   7  20   660.4   178.1   2
   7   8 -26  1611.6    94.4   2
   7   8 -25    26.3    66.3   2
   7   8 -24   598.6    55.0   2
   7   8 -23   391.1    42.9   2
   7   8 -22   217.8    34.8   2
   7   8 -21  3192.0    63.9   2
   7   8 -20   -10.4    23.5   2
   7   8 -19   112.2    20.2   2
   7   8 -18     1.4    17.0   2
   7   8 -17   818.3    17.5   2
   7   8 -16  1025.9    20.0   2
   7   8 -14   198.7    19.0   2
   7   8 -13   500.3    16.4   2
   7   8 -12   604.6    20.2   2
   7   8 -11   826.3    20.7   2
   7   8 -10   140.3    12.2   2
   7   8  -9   192.7    13.0   2
   7   8  -8    11.7    11.7   2
   7   8  -6    82.6     8.1   2
   7   8  -5  2197.0    33.1   2
   7   8  -4  1275.0    22.1   2
   7   8  -2  2141.9    35.3   2
   7   8   1   627.8    17.3   2
   7   8   2  1438.1    23.0   2
   7   8   3    69.5     9.3   2
   7   8   4   423.6    16.3   2
   7   8   5  1517.1    32.7   2
   7   8   6  1010.1    24.5   2
   7   8   7  2633.3    58.7   2
   7   8   8   532.5    22.0   2
   7   8   9   245.5    15.9   2
   7   8  10   179.5    16.2   2
   7   8  11    74.7    20.2   2
   7   8  12    69.1    20.9   2
   7   8  13   918.5    31.9   2
   7   8  14   192.8    30.5   2
   7   8  16    23.1    42.1   2
   7   8  17   185.2    55.6   2
   7   8  18    50.4    62.0   2
   7   8  19    68.9   104.0   2
   7   8  20   -62.0   137.3   2
   7   9 -26   168.4    91.7   2
   7   9 -24    -6.5    59.7   2
   7   9 -23  2147.9   114.4   2
   7   9 -22   -22.4    35.8   2
   7   9 -21  1474.6    40.3   2
   7   9 -20   657.6    26.4   2
   7   9 -19   237.7    18.8   2
   7   9 -18  2495.5    30.4   2
   7   9 -17    87.3    14.5   2
   7   9 -16  2451.1    51.3   2
   7   9 -15   258.4    14.7   2
   7   9 -14  1495.2    26.6   2
   7   9 -13     7.0    13.8   2
   7   9 -12   472.7    19.6   2
   7   9 -11   919.4    22.3   2
   7   9 -10  1753.8    28.9   2
   7   9  -9  1969.3    33.7   2
   7   9  -8  2863.3    39.0   2
   7   9  -7   199.4    11.5   2
   7   9  -6   109.5     9.4   2
   7   9  -5    18.3     7.6   2
   7   9  -4   503.3    12.8   2
   7   9  -3   875.0    26.6   2
   7   9  -2    37.4    10.9   2
   7   9   1    75.8    11.3   2
   7   9   2    62.0    10.4   2
   7   9   3     1.4    11.5   2
   7   9   4   383.8    17.0   2
   7   9   5   477.6    18.0   2
   7   9   6  1732.9    32.4   2
   7   9   7    85.9    16.0   2
   7   9   8   136.4    17.8   2
   7   9   9   208.8    16.3   2
   7   9  10   435.5    20.4   2
   7   9  11   463.0    25.8   2
   7   9  12     1.0    26.0   2
   7   9  13   -32.2    25.2   2
   7   9  14     9.6    33.1   2
   7   9  15   392.5    38.6   2
   7   9  16   143.1    51.3   2
   7   9  17   437.4    56.9   2
   7   9  18   187.1    70.0   2
   7   9  19   218.8    83.8   2
   7  10 -26   330.6    95.7   2
   7  10 -25    13.0    74.3   2
   7  10 -24    49.3    59.5   2
   7  10 -23   432.0    43.7   2
   7  10 -22   462.2    37.2   2
   7  10 -20  1060.8    27.9   2
   7  10 -19  1522.0    28.2   2
   7  10 -18   -19.2    17.2   2
   7  10 -17  1565.3    52.2   2
   7  10 -16   -24.5    15.1   2
   7  10 -15   574.0    16.6   2
   7  10 -14   127.4    14.2   2
   7  10 -13  1250.9    24.1   2
   7  10 -12    37.2    14.9   2
   7  10 -11   611.6    18.8   2
   7  10 -10  1146.9    27.6   2
   7  10  -9   940.7    20.2   2
   7  10  -8  1026.1    22.8   2
   7  10  -7   305.4    17.6   2
   7  10  -6    52.4    11.5   2
   7  10  -5  1678.3    24.1   2
   7  10  -4   531.4    13.2   2
   7  10  -3  1248.7    25.2   2
   7  10  -2     2.6    12.0   2
   7  10  -1     0.2    14.2   2
   7  10   1   709.0    18.8   2
   7  10   2   106.7    11.5   2
   7  10   3   558.3    16.3   2
   7  10   4    17.7    14.7   2
   7  10   5   359.4    17.9   2
   7  10   6    63.9    16.4   2
   7  10   7   513.3    23.7   2
   7  10   8   708.0    21.9   2
   7  10   9   288.3    17.9   2
   7  10  10    22.4    18.3   2
   7  10  11     0.8    20.2   2
   7  10  12   141.0    29.4   2
   7  10  13   760.4    39.5   2
   7  10  14  1165.0    51.2   2
   7  10  15    25.8    38.1   2
   7  10  16   118.7    46.8   2
   7  10  17   246.8    57.9   2
   7  10  18   -18.4    71.4   2
   7  10  19   -75.9    88.1   2
   7  10  20     8.9   113.5   2
   7  11 -25    61.1    68.9   2
   7  11 -24  -101.4    55.9   2
   7  11 -23    20.3    46.0   2
   7  11 -22   106.3    37.0   2
   7  11 -21   183.4    34.7   2
   7  11 -20   421.7    25.2   2
   7  11 -19   109.0    21.4   2
   7  11 -17   113.0    17.2   2
   7  11 -16   201.9    17.1   2
   7  11 -15  1874.0    29.6   2
   7  11 -14   314.1    20.4   2
   7  11 -13   883.3    19.9   2
   7  11 -12   701.0    18.1   2
   7  11 -11    38.3    18.3   2
   7  11 -10  2810.9    44.2   2
   7  11  -9  3919.4    71.4   2
   7  11  -8   963.0    20.8   2
   7  11  -7   365.1    19.8   2
   7  11  -6   207.6    12.4   2
   7  11  -5    -6.2    10.1   2
   7  11  -4   684.3    14.8   2
   7  11  -3  2153.1    37.4   2
   7  11  -2   334.8    15.9   2
   7  11  -1   388.5    15.3   2
   7  11   0    20.5    39.7   2
   7  11   1  2318.6    36.6   2
   7  11   2   114.0    14.1   2
   7  11   3   408.4    16.4   2
   7  11   4    62.6    16.0   2
   7  11   5   193.7    16.7   2
   7  11   6   366.1    17.7   2
   7  11   7   837.9    30.6   2
   7  11   8    19.2    16.9   2
   7  11   9    87.4    17.7   2
   7  11  10   102.0    20.0   2
   7  11  12    26.8    29.4   2
   7  11  13   166.6    36.3   2
   7  11  14    73.0    43.3   2
   7  11  15    59.7    50.3   2
   7  11  16   550.9    52.4   2
   7  11  17  1098.6    68.1   2
   7  11  18   105.9    75.9   2
   7  11  19  -123.7    94.1   2
   7  11  20   -83.7   119.6   2
   7  12 -25  -198.6    75.1   2
   7  12 -23   277.9    49.9   2
   7  12 -22    -7.3    35.2   2
   7  12 -21    47.9    33.4   2
   7  12 -20   569.8    30.0   2
   7  12 -18   365.2    20.9   2
   7  12 -17   477.8    20.9   2
   7  12 -16     0.2    16.3   2
   7  12 -15   578.4    20.6   2
   7  12 -14    32.5    16.8   2
   7  12 -13   245.9    17.8   2
   7  12 -12   377.6    18.4   2
   7  12 -11  1580.2    30.3   2
   7  12 -10  1009.7    25.8   2
   7  12  -9  2117.1    31.7   2
   7  12  -8    -1.3    14.7   2
   7  12  -6   355.0    14.5   2
   7  12  -5  1470.1    26.9   2
   7  12  -4  1022.8    20.7   2
   7  12  -3   606.0    15.1   2
   7  12  -2   602.5    20.3   2
   7  12  -1     0.3    12.3   2
   7  12   0  1472.6    69.7   2
   7  12   1  1024.7    23.4   2
   7  12   2    12.0    13.9   2
   7  12   3    71.0    16.1   2
   7  12   4  3412.0    59.9   2
   7  12   5   653.9    28.5   2
   7  12   6   209.3    18.4   2
   7  12   7    43.6    22.5   2
   7  12   8   301.2    20.6   2
   7  12   9   158.0    18.4   2
   7  12  10   153.4    20.5   2
   7  12  11   189.4    23.3   2
   7  12  12   386.9    30.9   2
   7  12  13   114.8    38.4   2
   7  12  14   227.0    47.8   2
   7  12  15   -81.6    52.8   2
   7  12  16    87.2    66.3   2
   7  12  17   -10.7    69.9   2
   7  12  18  -149.2    76.8   2
   7  13 -25  -192.2    83.2   2
   7  13 -24   169.2    65.0   2
   7  13 -23    33.1    46.8   2
   7  13 -22   -33.5    41.1   2
   7  13 -21    55.2    33.9   2
   7  13 -19  1753.4    39.9   2
   7  13 -18  1596.5    32.0   2
   7  13 -17  1113.3    27.3   2
   7  13 -16    33.3    17.4   2
   7  13 -15    20.4    15.3   2
   7  13 -13   112.7    18.3   2
   7  13 -12   464.6    21.3   2
   7  13 -11     8.6    17.7   2
   7  13 -10     8.6    16.1   2
   7  13  -9   640.7    21.0   2
   7  13  -8  1295.7    26.3   2
   7  13  -6    28.0    12.9   2
   7  13  -5   964.4    22.9   2
   7  13  -4   275.4    13.4   2
   7  13  -3  2491.3    36.6   2
   7  13  -2  1613.0    29.2   2
   7  13  -1   870.8    22.3   2
   7  13   0  3086.5   101.8   2
   7  13   1    25.0    15.1   2
   7  13   2  1221.5    29.6   2
   7  13   3   134.7    17.7   2
   7  13   4   708.0    23.5   2
   7  13   5   166.8    19.6   2
   7  13   6   -25.7    23.4   2
   7  13   8   457.8    23.1   2
   7  13   9   878.4    28.9   2
   7  13  10   -14.0    22.0   2
   7  13  11  1377.6    35.1   2
   7  13  12   100.6    27.6   2
   7  13  13   397.6    42.2   2
   7  13  14    60.1    48.0   2
   7  13  15   819.6    65.8   2
   7  13  16    97.6    73.4   2
   7  13  17     1.9    91.2   2
   7  13  18  -141.2    80.9   2
   7  13  19  -179.8   101.7   2
   7  14 -25    51.6    75.3   2
   7  14 -24   170.2    62.2   2
   7  14 -23  -106.9    60.2   2
   7  14 -22   124.4    44.5   2
   7  14 -20   724.8    34.9   2
   7  14 -19    43.8    36.7   2
   7  14 -18    94.2    27.8   2
   7  14 -17    13.6    22.4   2
   7  14 -16   -12.2    19.0   2
   7  14 -15   132.9    16.5   2
   7  14 -13    12.7    17.8   2
   7  14 -12  1419.2    28.4   2
   7  14 -11  1103.0    44.2   2
   7  14 -10   549.6    20.3   2
   7  14  -9   140.4    17.1   2
   7  14  -8   406.1    16.7   2
   7  14  -6     5.5    13.6   2
   7  14  -5   269.2    16.6   2
   7  14  -4  1148.9    25.9   2
   7  14  -3   193.2    15.8   2
   7  14  -2   136.3    17.8   2
   7  14  -1  1294.9    28.5   2
   7  14   1   394.5    17.7   2
   7  14   2   545.9    22.5   2
   7  14   3  1246.5    30.7   2
   7  14   4   258.5    20.9   2
   7  14   5  1122.9    33.8   2
   7  14   6   376.5    22.4   2
   7  14   8     2.9    22.0   2
   7  14   9   788.4    36.7   2
   7  14  10  1907.3    47.2   2
   7  14  11   723.4    30.9   2
   7  14  12   -11.3    29.5   2
   7  14  13   391.2    44.6   2
   7  14  15  2216.8   115.3   2
   7  14  16   373.0    85.1   2
   7  14  17   531.9   102.0   2
   7  14  18   155.7   125.4   2
   7  15 -24   759.7    77.8   2
   7  15 -23   172.2    89.2   2
   7  15 -22   388.8    63.2   2
   7  15 -21   664.1    65.3   2
   7  15 -20   144.3    39.2   2
   7  15 -19     3.4    31.2   2
   7  15 -18    34.6    27.2   2
   7  15 -17  1766.3    34.0   2
   7  15 -16   364.6    23.5   2
   7  15 -15   -23.5    26.8   2
   7  15 -14   261.5    34.7   2
   7  15 -13   -24.5    16.5   2
   7  15 -12   103.7    16.8   2
   7  15 -11    -3.9    15.7   2
   7  15 -10   398.4    19.5   2
   7  15  -9  1625.6    35.2   2
   7  15  -8  1947.2    32.4   2
   7  15  -6   617.7    21.7   2
   7  15  -5   148.2    16.4   2
   7  15  -4   245.4    17.5   2
   7  15  -3    41.0    15.9   2
   7  15  -2    -8.6    15.3   2
   7  15  -1  1692.6    35.5   2
   7  15   1   303.5    19.8   2
   7  15   2   544.6    21.7   2
   7  15   3   216.1    18.0   2
   7  15   4   313.5    23.3   2
   7  15   5  5501.0    98.7   2
   7  15   6     6.2    19.0   2
   7  15   7    17.7    20.8   2
   7  15   8   141.0    25.6   2
   7  15   9  1143.0    35.4   2
   7  15  10   319.2    30.5   2
   7  15  12   149.7    33.2   2
   7  15  13   -52.9    37.2   2
   7  15  14   980.7    51.3   2
   7  15  16  1432.7   100.8   2
   7  15  17  -190.7   109.0   2
   7  16 -24   -86.7    92.4   2
   7  16 -22  -141.0    64.6   2
   7  16 -21   -44.7    51.0   2
   7  16 -20   846.9    42.1   2
   7  16 -19   119.3    31.8   2
   7  16 -18   265.5    27.3   2
   7  16 -17   179.7    22.5   2
   7  16 -15   302.8    30.2   2
   7  16 -14    44.3    20.3   2
   7  16 -13   161.3    19.0   2
   7  16 -12    19.8    17.7   2
   7  16 -11   105.8    17.3   2
   7  16 -10   383.1    18.6   2
   7  16  -9    23.7    17.3   2
   7  16  -8     6.0    15.8   2
   7  16  -6   -33.2    15.3   2
   7  16  -5    36.5    15.7   2
   7  16  -4   593.2    22.5   2
   7  16  -3  1274.6    36.3   2
   7  16  -2  1297.6    31.3   2
   7  16  -1   160.4    21.8   2
   7  16   1    22.2    18.9   2
   7  16   2   350.7    22.2   2
   7  16   3   595.2    23.3   2
   7  16   4   190.5    21.2   2
   7  16   5  1328.1    31.0   2
   7  16   6   -17.4    20.4   2
   7  16   7     4.4    23.2   2
   7  16   8    76.2    31.6   2
   7  16   9   120.2    30.7   2
   7  16  10   239.2    32.8   2
   7  16  11   -45.6    36.5   2
   7  16  12    59.1    35.0   2
   7  16  13   201.3    40.2   2
   7  16  14   251.8    48.8   2
   7  16  15    16.0    54.2   2
   7  16  17  -104.0   114.1   2
   7  16  18    29.6   147.5   2
   7  17 -23   271.3    86.7   2
   7  17 -22  -143.0    69.3   2
   7  17 -21   520.4    50.4   2
   7  17 -20   374.9    42.4   2
   7  17 -19   -25.5    30.0   2
   7  17 -18   387.5    31.0   2
   7  17 -17   243.2    32.7   2
   7  17 -16  1391.0    34.5   2
   7  17 -15   838.0    28.0   2
   7  17 -14    -6.3    67.8   2
   7  17 -13   -29.5    19.1   2
   7  17 -12   514.7    19.7   2
   7  17 -11   532.8    22.2   2
   7  17 -10   604.1    24.1   2
   7  17  -9    17.3    17.7   2
   7  17  -8   388.6    18.2   2
   7  17  -7  2053.6   154.5   2
   7  17  -6  1366.6    29.2   2
   7  17  -5   855.1    25.6   2
   7  17  -4   490.7    26.3   2
   7  17  -3   -34.5    18.4   2
   7  17  -2   -21.4    18.2   2
   7  17  -1   278.2    20.1   2
   7  17   1   475.7    24.2   2
   7  17   2   -29.6    21.3   2
   7  17   3   940.7    30.0   2
   7  17   4   574.3    26.2   2
   7  17   5   417.1    24.0   2
   7  17   6  1124.9    33.5   2
   7  17   8    73.2    25.1   2
   7  17   9    60.9    30.6   2
   7  17  11    56.3    38.5   2
   7  17  12    43.2    45.6   2
   7  17  13  1426.3    55.7   2
   7  17  14   120.7    52.2   2
   7  17  15  1493.8    73.1   2
   7  17  16   -89.2    69.6   2
   7  17  18  1142.1   166.7   2
   7  18 -23   -32.7    93.0   2
   7  18 -22  -131.2    63.3   2
   7  18 -21    34.8    55.3   2
   7  18 -20   857.8    50.8   2
   7  18 -19   261.6    35.0   2
   7  18 -18   334.8    29.7   2
   7  18 -17   -53.7    29.7   2
   7  18 -16   124.1    26.3   2
   7  18 -15   -65.2    23.5   2
   7  18 -13    16.2    18.8   2
   7  18 -12   674.6    22.0   2
   7  18 -11   261.1    21.1   2
   7  18 -10   465.1    20.5   2
   7  18  -9  3496.2    64.1   2
   7  18  -8  5214.2    68.9   2
   7  18  -6   649.6    24.4   2
   7  18  -5   151.1    20.4   2
   7  18  -4  3943.5    75.9   2
   7  18  -3    96.5    21.3   2
   7  18  -2   964.4    30.2   2
   7  18  -1  1390.0    37.8   2
   7  18   1   214.3    24.3   2
   7  18   2   800.5    28.1   2
   7  18   3   259.5    24.0   2
   7  18   4   227.6    22.0   2
   7  18   5   221.2    24.2   2
   7  18   6    88.9    24.4   2
   7  18   8   -23.0    24.8   2
   7  18   9    47.8    26.8   2
   7  18  10    37.3    37.1   2
   7  18  11    69.9    42.0   2
   7  18  12   187.4    52.1   2
   7  18  13   -94.6    59.1   2
   7  18  15   550.4    69.4   2
   7  18  16   -42.9    77.9   2
   7  19 -23    22.1    88.3   2
   7  19 -22  1236.8    83.9   2
   7  19 -21   -66.9    60.4   2
   7  19 -20   -19.2    44.2   2
   7  19 -18     9.8    34.3   2
   7  19 -17   229.6    33.3   2
   7  19 -16   173.9    29.7   2
   7  19 -15  1317.5    38.4   2
   7  19 -14   -17.7    97.2   2
   7  19 -13   394.3    22.6   2
   7  19 -12  1275.0    43.2   2
   7  19 -11   389.4    23.0   2
   7  19 -10   -20.9    19.6   2
   7  19  -9   826.5    23.8   2
   7  19  -8   -16.1    20.4   2
   7  19  -6    28.8    22.5   2
   7  19  -5   992.2    29.3   2
   7  19  -4   109.3    21.3   2
   7  19  -3    -3.9    19.6   2
   7  19  -2   400.6    25.4   2
   7  19  -1   103.8    21.2   2
   7  19   1  1262.0    36.5   2
   7  19   2   982.6    28.6   2
   7  19   3  1226.8    34.6   2
   7  19   4    13.1    20.0   2
   7  19   5   639.5    29.7   2
   7  19   6   107.4    26.5   2
   7  19   8    49.2    26.9   2
   7  19   9   806.8    35.6   2
   7  19  10   533.1    45.3   2
   7  19  11   262.3    48.6   2
   7  19  13   396.4    66.6   2
   7  19  15   161.8    73.2   2
   7  19  16   137.5    86.8   2
   7  19  17   -88.2   103.3   2
   7  20 -22   -63.1    79.6   2
   7  20 -21    29.1    57.8   2
   7  20 -20   324.7    49.8   2
   7  20 -19   238.7    41.2   2
   7  20 -18   158.0    38.9   2
   7  20 -17   177.3    33.8   2
   7  20 -16   810.7    39.1   2
   7  20 -15   427.3    32.3   2
   7  20 -13   698.4    43.3   2
   7  20 -12  1237.3    33.9   2
   7  20 -11    25.9    21.8   2
   7  20 -10   200.2    22.0   2
   7  20  -9    65.6    20.8   2
   7  20  -8    92.3    20.6   2
   7  20  -6    24.7    19.2   2
   7  20  -5   298.5    24.1   2
   7  20  -4    18.0    22.1   2
   7  20  -3   327.1    24.1   2
   7  20  -2   849.9    28.7   2
   7  20  -1    42.7    22.5   2
   7  20   1   254.9    22.8   2
   7  20   2    43.9    23.5   2
   7  20   3   -23.1    23.0   2
   7  20   4   -33.6    21.8   2
   7  20   5   288.0    28.4   2
   7  20   6  1656.3    46.1   2
   7  20   7     4.6    30.8   2
   7  20   8   365.5    31.2   2
   7  20   9   157.1    33.5   2
   7  20  11    -4.0    51.4   2
   7  20  12   158.3    61.2   2
   7  20  13    69.6    71.9   2
   7  20  14   466.0    85.2   2
   7  20  15   526.5    81.8   2
   7  20  16  -178.0    94.9   2
   7  20  17   541.6   121.5   2
   7  21 -22  1279.0    84.0   2
   7  21 -20   863.9    51.7   2
   7  21 -19   808.3    55.1   2
   7  21 -18   -25.6    42.6   2
   7  21 -17   -40.2    37.6   2
   7  21 -16   202.0    36.6   2
   7  21 -15    93.2    34.6   2
   7  21 -13   -41.3    23.8   2
   7  21 -12   455.0    28.2   2
   7  21 -11   200.5    24.8   2
   7  21 -10   138.3    23.9   2
   7  21  -9   105.5    21.4   2
   7  21  -8   115.6    20.4   2
   7  21  -6  2121.3    41.0   2
   7  21  -5   300.3    22.9   2
   7  21  -4   104.2    24.2   2
   7  21  -3   411.6    23.8   2
   7  21  -2   -34.7    22.1   2
   7  21  -1    -2.5    21.5   2
   7  21   1     0.5    23.8   2
   7  21   2   330.1    26.0   2
   7  21   3   351.9    28.0   2
   7  21   4   -17.4    24.5   2
   7  21   5     4.9    29.5   2
   7  21   6   147.4    39.5   2
   7  21   8  2052.3    61.3   2
   7  21   9    -3.2    36.1   2
   7  21  10   135.6    41.3   2
   7  21  11  1097.4    67.3   2
   7  21  12   864.4    75.0   2
   7  21  13    59.2    81.2   2
   7  21  16  -121.2   104.9   2
   7  22 -21    16.2    64.0   2
   7  22 -20   111.5    58.2   2
   7  22 -19   245.2    55.6   2
   7  22 -18   -44.6    47.4   2
   7  22 -17   760.8    48.6   2
   7  22 -16   418.7    42.9   2
   7  22 -15    59.8    31.0   2
   7  22 -13   126.8    31.1   2
   7  22 -12   -31.1    29.6   2
   7  22 -10    60.7    26.7   2
   7  22  -9   485.2    26.0   2
   7  22  -8   112.8    25.7   2
   7  22  -6   494.1    27.7   2
   7  22  -5   278.8    22.6   2
   7  22  -4   322.5    22.1   2
   7  22  -3   430.7    27.0   2
   7  22  -2   444.6    26.4   2
   7  22  -1   -27.6    23.8   2
   7  22   1   229.7    26.8   2
   7  22   2   287.2    28.0   2
   7  22   3   525.7    31.0   2
   7  22   4    24.1    25.6   2
   7  22   5   -42.8    27.5   2
   7  22   6  2528.3    64.5   2
   7  22   9    -4.9    39.3   2
   7  22  10  1887.9    63.5   2
   7  22  12  -123.7    76.9   2
   7  22  13  -213.4    92.5   2
   7  22  14   411.7   109.5   2
   7  23 -21   -78.5    80.9   2
   7  23 -20   977.7    74.7   2
   7  23 -19   142.0    62.4   2
   7  23 -18   447.9    57.8   2
   7  23 -17  -113.3    50.8   2
   7  23 -16   856.5    51.7   2
   7  23 -15   242.0    42.5   2
   7  23 -13   179.8    36.7   2
   7  23 -12   -13.3    33.7   2
   7  23 -11   454.9    34.1   2
   7  23 -10   242.7    33.6   2
   7  23  -9   114.3    25.8   2
   7  23  -8   800.5    33.6   2
   7  23  -6  3092.0    53.0   2
   7  23  -5   364.1    25.5   2
   7  23  -4    14.4    23.1   2
   7  23  -3   334.1    27.4   2
   7  23  -2   718.0    31.3   2
   7  23  -1     2.8    26.0   2
   7  23   1   -18.3    28.1   2
   7  23   2    -0.4    27.9   2
   7  23   3    -7.4    30.5   2
   7  23   4   -10.6    28.2   2
   7  23   5    23.2    29.7   2
   7  23   6   -44.1    39.5   2
   7  23   8   113.0    56.5   2
   7  23  10   -51.0    49.1   2
   7  23  11   846.0    62.4   2
   7  23  12   145.1    85.3   2
   7  24 -20   230.5    87.5   2
   7  24 -19    43.0    73.5   2
   7  24 -18  -124.2    66.1   2
   7  24 -17   240.3    61.6   2
   7  24 -16   290.4    45.8   2
   7  24 -13   567.9    44.8   2
   7  24 -12    58.8    54.8   2
   7  24 -11   201.4    36.9   2
   7  24 -10   978.6    35.9   2
   7  24  -9    -8.8    27.2   2
   7  24  -6   671.3    34.3   2
   7  24  -5    13.2    25.3   2
   7  24  -4  1080.6    38.3   2
   7  24  -3   350.4    30.3   2
   7  24  -2   357.7    30.6   2
   7  24  -1   427.2    31.1   2
   7  24   1   -28.0    31.1   2
   7  24   2     6.8    32.5   2
   7  24   3  1325.9    47.3   2
   7  24   4    -8.7    35.4   2
   7  24   5    21.6    33.3   2
   7  24   6   858.1    53.1   2
   7  24   8   462.5    58.7   2
   7  24  10   249.3    57.3   2
   7  24  11   123.2    62.3   2
   7  24  13   159.1   118.6   2
   7  25 -19   172.4   138.9   2
   7  25 -18   135.3    79.8   2
   7  25 -17   575.9    72.0   2
   7  25 -15   281.5    47.1   2
   7  25 -13   179.2   114.8   2
   7  25 -12   -28.1    44.4   2
   7  25 -11  2722.9    69.7   2
   7  25 -10   252.6    33.7   2
   7  25  -9   528.7    33.8   2
   7  25  -8   488.1    38.4   2
   7  25  -6    10.6    33.4   2
   7  25  -5     4.6    27.7   2
   7  25  -4    54.6    33.2   2
   7  25  -3   162.2    33.4   2
   7  25  -2   -15.1    31.5   2
   7  25  -1   -92.4    31.5   2
   7  25   1  1001.7    44.9   2
   7  25   2   162.8    39.8   2
   7  25   3     4.7    39.1   2
   7  25   4   447.0    43.8   2
   7  25   5  2535.0    63.1   2
   7  25   7   203.2    57.4   2
   7  25   8    97.2    62.4   2
   7  25  10   990.2    86.3   2
   7  25  11   473.4    76.6   2
   7  25  12   -83.4    80.1   2
   7  25  13  -150.5   130.1   2
   7  25  14   817.6   165.1   2
   7  26 -19   443.1   130.7   2
   7  26 -18   -44.4    92.5   2
   7  26 -17   801.9    68.7   2
   7  26 -16   -58.5    56.7   2
   7  26 -15  1448.0    76.9   2
   7  26 -12   378.3    52.5   2
   7  26 -11   181.7    48.0   2
   7  26 -10   248.2    38.7   2
   7  26  -9    16.3    42.4   2
   7  26  -8  1503.1    56.1   2
   7  26  -6   124.5    36.7   2
   7  26  -5    31.8    31.0   2
   7  26  -4   919.0    44.3   2
   7  26  -3   444.6    38.9   2
   7  26  -2   215.5    38.2   2
   7  26  -1   -38.3    35.0   2
   7  26   1  1121.4    50.6   2
   7  26   2    69.1    42.5   2
   7  26   3   225.2    44.9   2
   7  26   4   101.7    47.0   2
   7  26   5   192.8    43.3   2
   7  26   6     3.8    57.4   2
   7  26   8   393.3    74.9   2
   7  26   9   -68.2    80.7   2
   7  26  10  -152.9    86.8   2
   7  27 -18   -22.0   108.5   2
   7  27 -17   240.9    76.4   2
   7  27 -16    -1.4    65.7   2
   7  27 -15    39.4    73.7   2
   7  27 -13   -25.2   121.7   2
   7  27 -12  1069.7    67.3   2
   7  27 -11   123.4    53.6   2
   7  27 -10    90.3    46.8   2
   7  27  -9   -83.2    47.7   2
   7  27  -8   270.5    46.5   2
   7  27  -6   143.9    44.1   2
   7  27  -5   -31.2    34.1   2
   7  27  -4   -22.7    42.2   2
   7  27  -3    29.0    41.0   2
   7  27  -2  1255.1    53.0   2
   7  27  -1   -25.1    40.6   2
   7  27   1     0.9    47.0   2
   7  27   2    46.3    46.8   2
   7  27   3   374.8    51.9   2
   7  27   4  -103.1    51.5   2
   7  27   5   -87.2    45.4   2
   7  27   6    44.9    49.4   2
   7  27   8   285.3    83.8   2
   7  27  10  -141.2   105.5   2
   7  27  11  -192.0    89.5   2
   7  27  12  -213.1   104.5   2
   7  28 -17    52.4    87.1   2
   7  28 -16   -39.4    75.1   2
   7  28 -15   130.3    89.9   2
   7  28 -13  -111.8    73.9   2
   7  28 -12   231.4    68.4   2
   7  28 -11   -30.1    50.7   2
   7  28 -10   -27.4    47.1   2
   7  28  -9  2181.8    81.8   2
   7  28  -8  -100.0    53.9   2
   7  28  -6   172.1    49.6   2
   7  28  -5   208.1    41.1   2
   7  28  -4  1160.3    58.1   2
   7  28  -3   897.2    54.1   2
   7  28  -2   -34.2    46.1   2
   7  28  -1   -87.1    46.8   2
   7  28   1     5.5    64.6   2
   7  28   2    41.8    56.1   2
   7  28   3   -33.5    59.2   2
   7  28   4  1719.9    80.6   2
   7  28   5   -64.8    52.1   2
   7  28   6   359.0    61.3   2
   7  28   9  1159.0   119.1   2
   7  29 -16   247.1   114.9   2
   7  29 -15    56.6   105.0   2
   7  29 -13   371.2    90.5   2
   7  29 -10    75.1    54.2   2
   7  29  -9   231.6    67.8   2
   7  29  -8   105.7    61.2   2
   7  29  -6   -33.9    55.0   2
   7  29  -5    33.3    43.9   2
   7  29  -4   -73.7    54.0   2
   7  29  -3   372.2    57.0   2
   7  29  -2    31.5    55.7   2
   7  29  -1  -126.3    53.7   2
   7  29   1     8.8    59.3   2
   7  29   2   391.1    65.2   2
   7  29   3   402.2    67.9   2
   7  29   4   -45.8    69.6   2
   7  29   5  1145.9    83.0   2
   7  29   6   238.0    65.8   2
   7  29   9   524.8   133.8   2
   7  29  10   459.9   148.1   2
   7  30 -13   349.0   107.7   2
   7  30 -12  1041.5   100.9   2
   7  30 -11    27.5    65.0   2
   7  30  -9   447.2    76.7   2
   7  30  -8   178.7    72.4   2
   7  30  -6   398.4    66.7   2
   7  30  -5   122.5    50.3   2
   7  30  -4  1514.7    76.8   2
   7  30  -3  1129.9    73.6   2
   7  30  -2   401.6    63.6   2
   7  30  -1  -195.0    62.8   2
   7  30   1   -19.0    71.7   2
   7  30   2  -158.0    72.4   2
   7  30   3   728.9    83.2   2
   7  30   4  2205.6   106.9   2
   7  30   5  -107.0    85.9   2
   7  30   6    53.9    74.8   2
   7  31 -13   498.8   126.0   2
   7  31 -11  -104.7    74.7   2
   7  31 -10   -88.0    92.8   2
   7  31  -9   350.6    89.2   2
   7  31  -8  1182.2    97.4   2
   7  31  -6  1488.7    70.5   2
   7  31  -5   370.5    60.4   2
   7  31  -4     0.6    70.6   2
   7  31  -3   315.4    75.6   2
   7  31  -2   118.4    72.1   2
   7  31  -1   616.7    79.2   2
   7  31   1   530.5    65.4   2
   7  31   2   362.6    86.4   2
   7  31   3   286.4    94.1   2
   7  31   4   104.1    96.4   2
   7  31   8   517.9   154.8   2
   7  32 -13    66.6   143.9   2
   7  32 -12     6.7    97.9   2
   7  32 -10   -69.8   110.9   2
   7  32  -9     9.3   104.5   2
   7  32  -8    86.8    96.2   2
   7  32  -6   123.3    68.5   2
   7  32  -5   153.7    65.4   2
   7  32  -4   362.3    87.2   2
   7  32  -3    -6.8    87.2   2
   7  32  -2  -187.5    86.6   2
   7  32  -1    28.9    84.1   2
   7  32   1   388.2    73.7   2
   7  32   2   -84.9    99.0   2
   7  32   3   929.7   117.2   2
   7  32   5  -101.1   119.2   2
   7  32   6  -167.0    99.0   2
   7  33 -11   224.9   102.5   2
   7  33 -10  -139.5   129.2   2
   7  33  -9   810.4   129.6   2
   7  33  -8   152.0   116.4   2
   7  33  -6  -134.0    77.9   2
   7  33  -5   -80.4    73.7   2
   7  33  -4   -46.4   100.9   2
   7  33  -3   157.6   103.5   2
   7  33  -2  -175.8   103.3   2
   7  33  -1  -130.1   102.3   2
   7  33   1   347.8    85.4   2
   7  33   2  -138.4   115.8   2
   7  33   3  -149.7   129.5   2
   7  33   5   -68.5   141.1   2
   7  34  -8   404.2   142.8   2
   7  34  -6    25.3    91.2   2
   7  34  -5   -25.2    89.2   2
   7  34  -4   420.4   121.0   2
   7  34  -3  -195.2   122.2   2
   7  34  -2  1076.3   132.9   2
   7  34  -1   388.7   122.2   2
   7  34   1  -131.4    98.1   2
   7  34   2   201.8   142.8   2
   7  35  -6    83.6   106.7   2
   7  35  -5    54.6   103.9   2
   7  35  -4  -116.6   150.5   2
   7  35  -3  -190.0   147.8   2
   7  35  -2  -216.5   147.7   2
   8   0 -21    23.3    40.9   2
   8   0 -17     4.6    17.0   2
   8   0 -15    -3.7    18.2   2
   8   0  -9    -3.4    12.1   2
   8   0  -7     5.8     9.0   2
   8   0  -5     6.2     6.5   2
   8   0  -3    -0.1     6.0   2
   8   0  -1     4.5     7.4   2
   8   0   1    11.5    11.0   2
   8   0   7   -12.9    25.5   2
   8   0  15    26.6    64.3   2
   8   1 -27   -97.2   101.2   2
   8   1 -26   -74.6    79.3   2
   8   1 -25  1181.6    99.2   2
   8   1 -24   344.1    51.3   2
   8   1 -23   546.6    42.2   2
   8   1 -22   483.6    34.7   2
   8   1 -21   -11.4    23.8   2
   8   1 -20   -34.4    19.6   2
   8   1 -19   116.3    17.0   2
   8   1 -18    43.8    14.8   2
   8   1 -17  1144.6    19.5   2
   8   1 -15   178.1    12.4   2
   8   1 -14    29.9    10.7   2
   8   1 -13   401.2    12.7   2
   8   1 -12   212.4    11.9   2
   8   1 -11    46.1    10.5   2
   8   1 -10   688.5    14.0   2
   8   1  -9   190.2    10.1   2
   8   1  -8   194.3    13.3   2
   8   1  -7   132.5     8.3   2
   8   1  -6  3324.1    44.9   2
   8   1  -5    28.2     4.2   2
   8   1  -4   885.0    12.0   2
   8   1  -3    20.6     6.2   2
   8   1  -2   127.6     8.0   2
   8   1  -1     6.9     7.3   2
   8   1   0   453.6    13.3   2
   8   1   1   455.7    10.3   2
   8   1   2    79.8    10.2   2
   8   1   3    49.7    16.4   2
   8   1   4     9.1    13.9   2
   8   1   5  2056.9    39.4   2
   8   1   6  3640.2    64.0   2
   8   1   7    62.6    16.7   2
   8   1   8   681.1    32.7   2
   8   1   9     2.6    24.2   2
   8   1  10  5744.4   110.8   2
   8   1  11  1769.9    58.0   2
   8   1  12   560.3    52.0   2
   8   1  13     5.3    54.1   2
   8   1  14     6.0    55.7   2
   8   1  15   476.9    61.9   2
   8   1  16   302.9    57.9   2
   8   1  17   160.5    73.5   2
   8   1  18   -83.7    98.0   2
   8   1  19    26.7   130.3   2
   8   1  20   -15.2    97.0   2
   8   2 -27   114.6   135.9   2
   8   2 -25   -60.8    64.1   2
   8   2 -23   245.6    35.3   2
   8   2 -21   426.8    25.7   2
   8   2 -19   739.0    21.1   2
   8   2 -17  1418.9    21.7   2
   8   2 -15   500.9    14.6   2
   8   2 -13  1143.0    19.8   2
   8   2 -11     4.3    10.9   2
   8   2  -9   234.8     9.9   2
   8   2  -7   370.3    10.6   2
   8   2  -5   386.9     7.0   2
   8   2  -3     7.7     9.3   2
   8   2  -1    24.8    11.4   2
   8   2   1    76.6     9.8   2
   8   2   3     8.7    13.6   2
   8   2   5   618.4    18.2   2
   8   2   7    63.1    25.4   2
   8   2   9   596.4    40.2   2
   8   2  11   841.4    45.2   2
   8   2  13    13.6    51.5   2
   8   2  15    27.3    60.5   2
   8   2  17    95.1   107.7   2
   8   2  19   -32.0    80.8   2
   8   3 -26  -158.5    69.3   2
   8   3 -25  1208.9    55.6   2
   8   3 -23   -10.3    32.2   2
   8   3 -22   -16.4    25.9   2
   8   3 -21   154.0    22.9   2
   8   3 -20   205.8    20.8   2
   8   3 -19   133.0    19.1   2
   8   3 -18    92.6    15.1   2
   8   3 -17   561.4    15.9   2
   8   3 -16   153.4    13.2   2
   8   3 -15     1.8    12.7   2
   8   3 -14   274.1    13.7   2
   8   3 -13   490.0    15.3   2
   8   3 -12    49.5    11.0   2
   8   3 -11   255.3    13.7   2
   8   3 -10   172.0    10.3   2
   8   3  -9   205.5    11.2   2
   8   3  -8    34.2     9.5   2
   8   3  -7  1095.8    17.5   2
   8   3  -6   526.1    10.9   2
   8   3  -5   688.5    10.6   2
   8   3  -4    58.7    10.4   2
   8   3  -3  1039.7    20.9   2
   8   3  -2    30.0     8.9   2
   8   3  -1    34.0     9.1   2
   8   3   1    30.6    10.3   2
   8   3   2     2.9    10.7   2
   8   3   3    30.0    10.1   2
   8   3   4   563.9    19.3   2
   8   3   5   148.1    15.6   2
   8   3   6   242.9    18.7   2
   8   3   7   132.4    18.9   2
   8   3   8    89.6    30.8   2
   8   3   9    33.1    35.2   2
   8   3  10   490.4    33.7   2
   8   3  11    -1.2    38.7   2
   8   3  12   371.1    43.5   2
   8   3  13   148.2    52.0   2
   8   3  14   242.5    67.1   2
   8   3  15    40.9    60.4   2
   8   3  17   339.5    80.0   2
   8   3  18   -92.8    98.4   2
   8   3  19  -126.4    92.5   2
   8   3  20    23.7    98.7   2
   8   4 -25   144.6    45.5   2
   8   4 -23   252.7    30.9   2
   8   4 -21   510.2    27.1   2
   8   4 -19   321.8    17.5   2
   8   4 -17    36.7    12.2   2
   8   4 -15   276.8    14.3   2
   8   4 -13   399.7    13.5   2
   8   4 -11   393.3    12.4   2
   8   4  -9   213.9     9.8   2
   8   4  -7   460.1    12.1   2
   8   4  -5   519.8    11.4   2
   8   4  -3  1318.9    29.0   2
   8   4   1  2877.9    46.1   2
   8   4   3   667.4    19.1   2
   8   4   5    17.9    19.1   2
   8   4   7  1408.1    33.8   2
   8   4   9   -18.3    24.3   2
   8   4  11   593.5    31.8   2
   8   4  13   680.8    46.4   2
   8   4  15   330.0    51.5   2
   8   4  17   305.4    81.3   2
   8   4  19    11.4    93.5   2
   8   5 -26   363.5    60.4   2
   8   5 -25   269.6    52.3   2
   8   5 -23   262.9    34.9   2
   8   5 -22    26.9    27.5   2
   8   5 -21   812.7    43.7   2
   8   5 -20  1414.9    29.5   2
   8   5 -19     8.0    16.6   2
   8   5 -18     0.3    14.2   2
   8   5 -17    40.6    13.8   2
   8   5 -16  1194.1    23.6   2
   8   5 -15   709.3    18.2   2
   8   5 -14   893.9    19.8   2
   8   5 -13   307.3    18.8   2
   8   5 -12   493.8    16.8   2
   8   5 -11  1137.7    21.8   2
   8   5 -10    -3.3    11.1   2
   8   5  -9   103.1    11.3   2
   8   5  -8  1314.6    28.2   2
   8   5  -7   122.5     9.3   2
   8   5  -6    48.1     6.9   2
   8   5  -5    34.3     9.4   2
   8   5  -3    58.0     9.4   2
   8   5  -2     6.2     8.1   2
   8   5  -1   553.6    18.3   2
   8   5   2   227.1    15.4   2
   8   5   3   342.4    14.2   2
   8   5   4   148.2    11.4   2
   8   5   5   168.3    21.0   2
   8   5   6   460.3    26.6   2
   8   5   7    84.3    18.7   2
   8   5   8    41.9    32.8   2
   8   5   9   490.9    32.0   2
   8   5  10    66.9    33.2   2
   8   5  11   884.5    39.3   2
   8   5  12    54.4    37.3   2
   8   5  13    77.7    46.0   2
   8   5  14    95.2    53.4   2
   8   5  15   225.5    50.3   2
   8   5  16   239.1    65.3   2
   8   5  17   -19.9    80.1   2
   8   5  18  -139.7   103.5   2
   8   5  19  1092.4   134.4   2
   8   5  20   867.8   123.5   2
   8   6 -25   -86.6    52.6   2
   8   6 -23    -0.2    35.1   2
   8   6 -21   644.0    26.7   2
   8   6 -19     7.2    17.4   2
   8   6 -17   -10.3    14.1   2
   8   6 -15   510.5    16.7   2
   8   6 -13    16.4    14.7   2
   8   6 -11   149.2    14.5   2
   8   6  -9   135.7    12.9   2
   8   6  -7    77.2     9.0   2
   8   6  -5  3306.7    44.4   2
   8   6  -3    93.3     9.8   2
   8   6  -1   130.5    12.0   2
   8   6   1  1633.5    35.3   2
   8   6   3  3806.8    58.5   2
   8   6   5  2455.6    42.0   2
   8   6   7  1272.0    35.7   2
   8   6   9     9.6    28.7   2
   8   6  11   -16.5    31.8   2
   8   6  13  1356.9    67.5   2
   8   6  15   117.0    41.9   2
   8   6  17   294.7    61.7   2
   8   6  19    32.5   132.6   2
   8   7 -26    35.7    77.7   2
   8   7 -25   -34.1    63.7   2
   8   7 -24  1398.4    59.1   2
   8   7 -23   -19.1    45.4   2
   8   7 -22   545.8    36.5   2
   8   7 -21     8.9    25.1   2
   8   7 -20   357.6    22.5   2
   8   7 -19   110.0    18.4   2
   8   7 -18  1322.2    24.1   2
   8   7 -17    88.4    17.8   2
   8   7 -16   229.8    14.8   2
   8   7 -14   914.0    21.5   2
   8   7 -13   320.2    15.8   2
   8   7 -12   746.3    19.2   2
   8   7 -11    39.1    12.1   2
   8   7 -10    71.3    11.7   2
   8   7  -9  1087.4    27.0   2
   8   7  -8  3450.3    72.1   2
   8   7  -7     7.2     9.4   2
   8   7  -6    78.4     9.1   2
   8   7  -5  1146.0    19.9   2
   8   7  -4  5613.7    81.1   2
   8   7  -3    27.5     9.8   2
   8   7  -2   982.6    19.7   2
   8   7  -1   820.3    20.2   2
   8   7   1   153.6    13.7   2
   8   7   2   141.7    11.8   2
   8   7   3     6.4    13.2   2
   8   7   4  1983.1    48.9   2
   8   7   5   974.7    26.4   2
   8   7   6   690.6    25.7   2
   8   7   7  1105.3    29.9   2
   8   7   9   138.5    22.7   2
   8   7  10    20.4    25.4   2
   8   7  11   138.1    26.6   2
   8   7  12   199.1    31.2   2
   8   7  13    70.1    35.7   2
   8   7  14   547.7    39.9   2
   8   7  16   -41.9    51.7   2
   8   7  17    67.7    63.0   2
   8   7  18   -11.3    75.2   2
   8   7  19  -166.7   135.9   2
   8   8 -21  1343.4    41.0   2
   8   8 -19   127.8    26.6   2
   8   8 -17  1218.7    34.0   2
   8   8 -15  1743.2    53.0   2
   8   8 -13   450.1    20.0   2
   8   8 -11  1297.6    41.7   2
   8   8  -9   201.9    19.3   2
   8   8  -7    -6.5    10.2   2
   8   8  -5   189.6    10.9   2
   8   8  -3    61.3    10.7   2
   8   8  -1  1871.9    32.6   2
   8   8   1   997.2    26.7   2
   8   8   3  3435.5    56.7   2
   8   8   5  1885.8    38.0   2
   8   8   7   544.8    31.7   2
   8   8   9   107.7    23.5   2
   8   8  13    27.2    30.5   2
   8   9 -26  1203.3    96.3   2
   8   9 -25   195.2    77.7   2
   8   9 -24  1232.0   142.1   2
   8   9 -23  -110.0    45.2   2
   8   9 -22  1080.2    44.5   2
   8   9 -21    13.7    30.8   2
   8   9 -20   -16.6    20.7   2
   8   9 -19   174.8    18.9   2
   8   9 -18    20.7    20.0   2
   8   9 -17  1069.0    38.7   2
   8   9 -16   252.6    19.6   2
   8   9 -15   365.1    18.7   2
   8   9 -14   288.7    17.4   2
   8   9 -13   213.1    17.4   2
   8   9 -12    12.6    15.9   2
   8   9 -11   256.5    16.2   2
   8   9 -10    64.0    14.1   2
   8   9  -9  1240.7    32.5   2
   8   9  -7    -2.4    12.9   2
   8   9  -6   159.1    10.2   2
   8   9  -5    55.2    10.5   2
   8   9  -3  1059.9    22.8   2
   8   9  -1  3411.1    52.7   2
   8   9   1    24.3    13.8   2
   8   9   2  1274.9    25.9   2
   8   9   3   229.5    14.5   2
   8   9   4  1247.8    25.5   2
   8   9   5   284.4    16.1   2
   8   9   6  2549.0    39.5   2
   8   9   7    11.8    19.0   2
   8   9  10   449.7    30.1   2
   8   9  11   857.3    30.0   2
   8   9  12   -12.6    32.4   2
   8   9  13  1389.9    45.8   2
   8   9  14  2258.2    60.2   2
   8   9  15   132.2    46.3   2
   8   9  16    91.5    56.0   2
   8   9  18    99.7    85.2   2
   8   9  19   893.9   115.5   2
   8  10 -25  -144.1    77.4   2
   8  10 -23   404.1    45.5   2
   8  10 -21    39.0    26.9   2
   8  10 -19   207.8    21.3   2
   8  10 -17   266.5    19.6   2
   8  10 -15   661.5    20.3   2
   8  10 -13   289.8    19.2   2
   8  10 -11  1392.4    26.8   2
   8  10  -9   159.5    16.4   2
   8  10  -7    26.6    11.7   2
   8  10  -5    -0.8    11.3   2
   8  10  -3   117.6    13.2   2
   8  10  -1     6.8    12.9   2
   8  10   1   511.8    18.0   2
   8  10   3  4031.7    57.5   2
   8  10   5    12.5    15.4   2
   8  10   7    37.7    16.4   2
   8  10   9   128.8    19.2   2
   8  10  11   113.0    24.3   2
   8  10  13   494.7    46.5   2
   8  10  15   204.9    47.9   2
   8  10  17    47.1    71.8   2
   8  10  19    20.4   112.6   2
   8  11 -25   573.7    74.8   2
   8  11 -23   -16.6    46.6   2
   8  11 -22    80.8    34.6   2
   8  11 -21  2576.0    45.6   2
   8  11 -20    10.6    26.3   2
   8  11 -19  2924.7    66.5   2
   8  11 -18   138.2    22.7   2
   8  11 -17  1526.2    31.1   2
   8  11 -16    67.9    17.8   2
   8  11 -15   203.7    17.5   2
   8  11 -14   -22.6    18.3   2
   8  11 -13    -4.0    16.5   2
   8  11 -12   993.3    25.6   2
   8  11 -11   326.4    20.1   2
   8  11 -10   742.8    21.9   2
   8  11  -9   651.0    24.0   2
   8  11  -7    43.6    12.0   2
   8  11  -6    -2.7    11.4   2
   8  11  -5     7.7    12.2   2
   8  11  -4  4546.4    76.3   2
   8  11  -3   558.0    19.6   2
   8  11  -1   583.3    21.6   2
   8  11   1  3049.0    45.6   2
   8  11   2   562.9    21.0   2
   8  11   3  1011.1    25.3   2
   8  11   4   243.2    16.9   2
   8  11   5  3105.4    54.1   2
   8  11   6   209.3    17.2   2
   8  11   7   215.0    16.6   2
   8  11   8   -31.8    19.2   2
   8  11   9    12.0    19.1   2
   8  11  10   357.6    23.7   2
   8  11  11   250.2    28.5   2
   8  11  12    50.3    28.6   2
   8  11  13   -21.7    43.8   2
   8  11  15  1026.5    74.2   2
   8  11  16   883.0    67.4   2
   8  11  17   475.7    78.5   2
   8  11  18    94.2    94.6   2
   8  12 -25   -11.1    79.1   2
   8  12 -23  -136.1    44.6   2
   8  12 -21  2777.5    54.0   2
   8  12 -19   -55.9    26.2   2
   8  12 -17   -26.6    21.3   2
   8  12 -15   231.7    16.3   2
   8  12 -13   129.0    17.6   2
   8  12 -11   -21.6    18.0   2
   8  12  -9   925.0    23.9   2
   8  12  -7   298.9    15.1   2
   8  12  -5  1733.2    24.8   2
   8  12  -3   987.8    27.6   2
   8  12  -1   259.4    18.2   2
   8  12   1   832.6    23.6   2
   8  12   3   705.4    24.0   2
   8  12   5   557.3    22.2   2
   8  12   7  1040.5    25.6   2
   8  12   9   534.7    24.3   2
   8  12  11   187.1    27.6   2
   8  12  13    -2.9    35.0   2
   8  12  15   561.5    75.7   2
   8  12  19   122.8   124.9   2
   8  13 -25  1019.5    90.7   2
   8  13 -23  1623.9    64.0   2
   8  13 -22   156.2    43.3   2
   8  13 -20   857.0    34.7   2
   8  13 -19   239.8    29.3   2
   8  13 -18   527.0    30.5   2
   8  13 -17   236.7    26.2   2
   8  13 -16   175.0    40.4   2
   8  13 -15   -20.2    17.1   2
   8  13 -14   400.4    18.3   2
   8  13 -13    53.4    17.2   2
   8  13 -12   234.3    16.9   2
   8  13 -11   647.7    19.5   2
   8  13 -10  2691.0    36.8   2
   8  13  -9   926.1    23.1   2
   8  13  -7  4199.6    53.9   2
   8  13  -6  4431.7    56.0   2
   8  13  -5    91.9    13.7   2
   8  13  -4    57.3    15.5   2
   8  13  -3   471.8    20.6   2
   8  13  -2    13.7    14.4   2
   8  13  -1  4361.3    68.9   2
   8  13   1   894.5    25.2   2
   8  13   2  1518.3    29.8   2
   8  13   3   877.5    24.7   2
   8  13   4   712.5    22.1   2
   8  13   5    76.0    17.2   2
   8  13   6  1100.8    25.4   2
   8  13   7   688.9    23.3   2
   8  13   8    50.8    33.3   2
   8  13   9   175.9    25.5   2
   8  13  10   101.8    24.8   2
   8  13  11   204.7    29.2   2
   8  13  12   295.3    34.3   2
   8  13  14   -79.9    60.5   2
   8  13  15   345.4    76.7   2
   8  13  16   109.0    93.2   2
   8  14 -25   400.9    81.2   2
   8  14 -23   329.3    56.6   2
   8  14 -21   417.5    40.5   2
   8  14 -19   107.0    31.0   2
   8  14 -17   -31.7    23.5   2
   8  14 -15   195.8    20.5   2
   8  14 -13   177.5    18.8   2
   8  14 -11   554.7    20.5   2
   8  14  -9   706.5    20.8   2
   8  14  -7    -7.0    20.0   2
   8  14  -5 10596.9   133.0   2
   8  14  -3   -13.8    14.9   2
   8  14  -1   498.2    25.0   2
   8  14   1   481.9    21.3   2
   8  14   3   281.6    19.8   2
   8  14   5    13.2    18.2   2
   8  14   7   -13.3    19.0   2
   8  14   9   826.5    34.3   2
   8  14  11   925.6    38.3   2
   8  14  13   316.1    42.9   2
   8  14  15   274.5    80.3   2
   8  14  17  -147.9   123.8   2
   8  15 -24   629.9    78.9   2
   8  15 -22   440.3    69.5   2
   8  15 -21   -55.2    41.3   2
   8  15 -20   219.9    41.9   2
   8  15 -19   164.9    35.1   2
   8  15 -18  1094.4    35.3   2
   8  15 -17  2295.5    39.9   2
   8  15 -16   408.5    25.5   2
   8  15 -15   526.9    30.9   2
   8  15 -14   305.5    20.9   2
   8  15 -13   768.4    24.1   2
   8  15 -12   166.5    24.8   2
   8  15 -11    89.7    17.2   2
   8  15 -10   101.5    16.1   2
   8  15  -9   354.1    19.4   2
   8  15  -7    15.2    28.8   2
   8  15  -6     0.1    16.2   2
   8  15  -5   333.9    18.4   2
   8  15  -3   777.1    24.4   2
   8  15  -2  4073.8    57.2   2
   8  15  -1  3078.0    47.2   2
   8  15   1  2529.2    44.9   2
   8  15   2   651.3    24.4   2
   8  15   3   474.3    23.3   2
   8  15   4   119.0    22.1   2
   8  15   5   102.1    20.3   2
   8  15   6   668.0    24.0   2
   8  15   7   999.2    34.3   2
   8  15   9   355.3    32.8   2
   8  15  10   190.6    35.2   2
   8  15  11   199.7    33.4   2
   8  15  12   259.8    38.4   2
   8  15  13  1005.8    52.6   2
   8  15  14   278.6    52.8   2
   8  15  16   406.9   108.0   2
   8  15  17  -111.1   133.7   2
   8  15  18   -80.4   166.1   2
   8  16 -23   262.4    79.9   2
   8  16 -21   193.6    60.1   2
   8  16 -19   289.7    35.6   2
   8  16 -17    11.1    23.0   2
   8  16 -15    46.6    26.6   2
   8  16 -13   100.8    19.1   2
   8  16 -11   993.5    43.2   2
   8  16  -9    -0.5    16.5   2
   8  16  -7   184.8    16.9   2
   8  16  -5  1704.5    37.1   2
   8  16  -3   904.6    27.7   2
   8  16  -1  1069.0    28.0   2
   8  16   1   234.8    23.4   2
   8  16   3   485.8    24.9   2
   8  16   5   122.6    21.7   2
   8  16   7     8.3    22.0   2
   8  16   9   294.7    34.0   2
   8  16  11  1071.8    53.7   2
   8  16  15   497.5    70.1   2
   8  17 -24   934.3   131.4   2
   8  17 -23  -130.7    86.5   2
   8  17 -22   -75.7    70.1   2
   8  17 -21    35.2    53.4   2
   8  17 -20   563.5    52.9   2
   8  17 -19   176.9    38.8   2
   8  17 -18  2920.8    75.9   2
   8  17 -16   498.8    28.5   2
   8  17 -15   197.3    23.9   2
   8  17 -14    -3.4    21.4   2
   8  17 -13   126.4    19.0   2
   8  17 -12   121.7    17.6   2
   8  17 -11    43.8    17.8   2
   8  17 -10  1551.7    31.0   2
   8  17  -7   500.3    21.1   2
   8  17  -6   506.6    23.8   2
   8  17  -5   574.3    22.1   2
   8  17  -4   190.9    19.3   2
   8  17  -3    17.6    20.6   2
   8  17  -2  3600.2    65.2   2
   8  17  -1   350.7    21.2   2
   8  17   1    12.0    17.7   2
   8  17   2   203.6    19.8   2
   8  17   3    34.0    19.1   2
   8  17   4  1356.6    35.1   2
   8  17   5   404.6    25.8   2
   8  17   6   974.3    33.8   2
   8  17   7    83.2    24.3   2
   8  17  10   588.4    44.3   2
   8  17  11   583.6    51.6   2
   8  17  12  1181.5    64.9   2
   8  17  13   170.2    51.8   2
   8  17  14    88.4    60.5   2
   8  17  15   113.6    73.1   2
   8  18 -23   -64.6    99.1   2
   8  18 -21    54.5    57.1   2
   8  18 -19   -81.5    35.3   2
   8  18 -17    60.1    37.4   2
   8  18 -15  2363.7    47.5   2
   8  18 -13    60.2    23.8   2
   8  18 -11   197.6    21.0   2
   8  18  -9   116.4    18.3   2
   8  18  -7   135.9    20.4   2
   8  18  -5   663.8    25.1   2
   8  18  -3    27.9    18.9   2
   8  18  -1    34.4    20.7   2
   8  18   1    -1.8    19.7   2
   8  18   3   -15.3    18.9   2
   8  18   5   808.7    32.7   2
   8  18   7   -27.0    26.1   2
   8  18   9   -12.9    30.6   2
   8  18  11   232.1    53.1   2
   8  18  15   -58.8    80.7   2
   8  18  17   -48.7   115.7   2
   8  19 -23  1120.7   103.3   2
   8  19 -22   392.1    78.8   2
   8  19 -21   259.4    55.1   2
   8  19 -20    51.2    45.5   2
   8  19 -19   101.2    55.8   2
   8  19 -17   929.3    42.1   2
   8  19 -16   266.7   103.4   2
   8  19 -15  2949.3    60.6   2
   8  19 -14   682.6    27.9   2
   8  19 -13   613.7    25.6   2
   8  19 -12   200.2    24.1   2
   8  19 -11    83.9    22.1   2
   8  19 -10   557.3    24.0   2
   8  19  -9    74.3    18.0   2
   8  19  -7  2649.5    38.9   2
   8  19  -6    17.1    19.2   2
   8  19  -5    58.5    22.0   2
   8  19  -4  1557.6    50.2   2
   8  19  -3    19.4    19.4   2
   8  19  -2   553.3    23.5   2
   8  19  -1  1119.1    32.7   2
   8  19   1  1014.4    31.3   2
   8  19   2   780.9    29.6   2
   8  19   3   394.8    23.4   2
   8  19   4   348.8    29.8   2
   8  19   5   -27.5    27.3   2
   8  19   6    29.6    29.6   2
   8  19   7  2125.7    55.3   2
   8  19   9    89.1    34.4   2
   8  19  10   198.2    48.8   2
   8  19  12    43.6    64.9   2
   8  19  13  1743.4    94.6   2
   8  19  14    88.6    94.7   2
   8  19  15   222.1    87.2   2
   8  19  16    66.7   105.1   2
   8  20 -21    32.3    60.6   2
   8  20 -19     4.8    49.1   2
   8  20 -17   -46.1    40.0   2
   8  20 -15   109.3    32.5   2
   8  20 -13   253.7    24.7   2
   8  20 -11   124.4    23.8   2
   8  20  -9   404.8    23.3   2
   8  20  -7   -10.4    21.8   2
   8  20  -5   202.6    21.5   2
   8  20  -3   336.6    22.9   2
   8  20  -1    72.7    20.7   2
   8  20   1   242.2    24.8   2
   8  20   3   -14.7    22.4   2
   8  20   5  1358.9    45.5   2
   8  20   7   261.5    38.2   2
   8  20   9   647.5    42.8   2
   8  20  11   107.7    62.8   2
   8  20  13   -64.8    87.8   2
   8  20  15   332.1    95.9   2
   8  21 -22   154.1    80.5   2
   8  21 -21   522.2   128.4   2
   8  21 -20   938.6    69.7   2
   8  21 -19   -62.6    53.8   2
   8  21 -18   -18.3    46.9   2
   8  21 -17   -55.2    43.9   2
   8  21 -15   254.5    31.8   2
   8  21 -14   -13.7    27.8   2
   8  21 -13   141.6    31.7   2
   8  21 -12   198.3    29.2   2
   8  21 -11    64.1    26.5   2
   8  21 -10   -21.3    25.2   2
   8  21  -9  1409.5    34.4   2
   8  21  -7   480.5    26.8   2
   8  21  -6   626.6    28.1   2
   8  21  -5   -19.8    20.6   2
   8  21  -4    -0.5    21.5   2
   8  21  -3   347.9    25.1   2
   8  21  -2   -33.8    23.0   2
   8  21  -1   -15.6    20.8   2
   8  21   1   -16.2    24.6   2
   8  21   2    -9.5    26.0   2
   8  21   3   635.5    32.5   2
   8  21   6    26.5    36.6   2
   8  21   7   943.6    48.5   2
   8  21   8    20.0    44.0   2
   8  21   9   -17.0    41.0   2
   8  21  10  1137.6    57.2   2
   8  21  11   -57.4    68.6   2
   8  21  12   237.3    85.5   2
   8  21  14   779.8   123.6   2
   8  22 -21   305.2    79.1   2
   8  22 -19  1330.1    72.5   2
   8  22 -17   260.1    49.9   2
   8  22 -15   180.7    45.7   2
   8  22 -13   249.1    35.2   2
   8  22 -11   163.0    30.4   2
   8  22  -9   111.6    24.9   2
   8  22  -7   442.4    29.1   2
   8  22  -5     9.7    22.5   2
   8  22  -3   508.6    28.2   2
   8  22  -1   -33.7    22.5   2
   8  22   1   876.1    35.2   2
   8  22   3     5.2    29.8   2
   8  22   5   287.0    30.9   2
   8  22   7   124.5    45.4   2
   8  22   9    59.0    44.6   2
   8  22  13    58.1   113.9   2
   8  23 -21   413.0    95.9   2
   8  23 -20  -139.7    77.3   2
   8  23 -19     7.4    73.8   2
   8  23 -18   -40.7    63.9   2
   8  23 -17   498.9    60.4   2
   8  23 -14   292.2    42.1   2
   8  23 -13   231.0    43.7   2
   8  23 -12    45.0    34.6   2
   8  23 -11   170.6    34.5   2
   8  23 -10  1057.9    35.4   2
   8  23  -9    -0.6    25.8   2
   8  23  -7    41.7    28.8   2
   8  23  -6  2978.5    55.8   2
   8  23  -5   -10.8    24.4   2
   8  23  -3    -0.7    27.1   2
   8  23  -2   -14.6    27.4   2
   8  23  -1   181.0    24.7   2
   8  23   1   -44.3    30.8   2
   8  23   2   100.2    32.2   2
   8  23   3   -17.6    33.1   2
   8  23   4   -52.1    33.2   2
   8  23   5   206.6    34.5   2
   8  23   6    24.4    46.8   2
   8  23   9   -75.6    63.1   2
   8  23  10   468.0    61.5   2
   8  23  11    73.3    62.5   2
   8  23  14  1207.4   158.2   2
   8  24 -19   -21.3    81.7   2
   8  24 -17   239.9    65.1   2
   8  24 -15   156.5    44.0   2
   8  24 -13   602.2    47.3   2
   8  24 -11   386.7    41.1   2
   8  24  -9   164.7    35.7   2
   8  24  -7    72.5    32.0   2
   8  24  -5   585.1    30.1   2
   8  24  -3   326.4    32.3   2
   8  24  -1    42.5    31.2   2
   8  24   1    33.5    34.4   2
   8  24   3    62.3    37.9   2
   8  24   5    53.7    37.7   2
   8  24   7  1435.8    70.4   2
   8  24  11   164.6    74.5   2
   8  24  13  -145.4   141.2   2
   8  25 -19  -133.4    97.5   2
   8  25 -18   239.6    84.7   2
   8  25 -17   257.8    60.4   2
   8  25 -16   670.0    96.7   2
   8  25 -15   202.5    60.1   2
   8  25 -14   407.3    58.2   2
   8  25 -13   239.5    54.2   2
   8  25 -12   -27.1    47.6   2
   8  25 -10    23.6    34.7   2
   8  25  -9    -2.6    40.5   2
   8  25  -7   205.1    38.3   2
   8  25  -6   -51.3    34.5   2
   8  25  -5   666.4    34.3   2
   8  25  -3   356.2    37.6   2
   8  25  -2    98.2    35.3   2
   8  25  -1    21.5    33.3   2
   8  25   1   -20.6    38.5   2
   8  25   2    -8.0    41.3   2
   8  25   3   636.0    48.0   2
   8  25   4   324.2    52.8   2
   8  25   5   100.7    41.2   2
   8  25   6   445.5    61.8   2
   8  25  10   215.7    92.3   2
   8  25  11  -115.2    78.7   2
   8  26 -19   343.5   116.3   2
   8  26 -17   122.8   100.7   2
   8  26 -15   -17.5    66.0   2
   8  26 -11   359.6    42.2   2
   8  26  -7   313.2    43.5   2
   8  26  -5   130.0    33.0   2
   8  26  -3   826.5    47.0   2
   8  26  -1   237.1    40.8   2
   8  26   1    24.5    59.3   2
   8  26   3    43.7    50.0   2
   8  26   5   314.5    48.0   2
   8  26   7  1393.1    88.8   2
   8  26   9  1000.7   104.3   2
   8  27 -18   151.4    91.3   2
   8  27 -17  2746.9   109.0   2
   8  27 -15    77.0    79.1   2
   8  27 -14   681.6    79.6   2
   8  27 -13   154.3    68.9   2
   8  27 -12    15.4    62.7   2
   8  27 -11   -16.5    46.1   2
   8  27 -10   273.9    45.0   2
   8  27  -9  1002.8    59.9   2
   8  27  -6   675.9    50.9   2
   8  27  -5   594.9    40.9   2
   8  27  -4  1115.9    56.0   2
   8  27  -3   -41.2    44.4   2
   8  27  -2   339.6    46.5   2
   8  27  -1   -71.7    45.1   2
   8  27   1   -36.6    49.3   2
   8  27   2    68.0    54.5   2
   8  27   3    25.4    56.3   2
   8  27   5   449.2    55.3   2
   8  27   6    54.7    58.6   2
   8  27   7  -159.9    84.2   2
   8  27   9   168.6   109.5   2
   8  27  10  1218.1   134.4   2
   8  28 -17   -15.1    90.6   2
   8  28 -15   -56.9    96.2   2
   8  28 -13   -24.1    80.1   2
   8  28 -11   234.5    56.0   2
   8  28  -9   -81.1    61.5   2
   8  28  -7   766.4    60.0   2
   8  28  -5   878.1    47.7   2
   8  28  -3   156.3    53.5   2
   8  28  -1   396.2    51.6   2
   8  28   1   -58.6    58.0   2
   8  28   5   -40.7    59.7   2
   8  28   9  -119.2   127.9   2
   8  29 -15   432.2   119.5   2
   8  29 -14   439.2   109.0   2
   8  29 -12   -76.8    84.5   2
   8  29 -11   -63.2    61.7   2
   8  29 -10   162.6    74.3   2
   8  29  -7   -65.4    61.5   2
   8  29  -6    30.0    47.9   2
   8  29  -5   -83.1    45.8   2
   8  29  -4   673.1    66.7   2
   8  29  -3  2368.0    85.6   2
   8  29  -2    28.0    59.6   2
   8  29  -1    40.3    59.2   2
   8  29   1   800.6    83.9   2
   8  29   2   -57.6    70.3   2
   8  29   3   116.5    75.4   2
   8  29   4   191.7    78.3   2
   8  29   5   -62.4    67.0   2
   8  29   6   140.2    75.9   2
   8  29   7   -77.4   112.4   2
   8  29   9   -47.3   146.9   2
   8  30 -13   657.2   112.6   2
   8  30  -9   253.8    83.3   2
   8  30  -7   368.1    73.6   2
   8  30  -5   499.9    57.6   2
   8  30  -3   -74.8    68.2   2
   8  30  -1   110.9    66.6   2
   8  30   1  -101.5    77.6   2
   8  30   3   775.4    97.0   2
   8  30   5  -106.3    91.9   2
   8  31 -14  -291.4   147.7   2
   8  31 -11  -133.9    77.7   2
   8  31 -10  -217.9   102.8   2
   8  31  -9  1112.0   106.4   2
   8  31  -7    83.0    84.1   2
   8  31  -6     2.0    62.2   2
   8  31  -5    40.4    62.9   2
   8  31  -4    49.2    80.2   2
   8  31  -3  -119.8    81.6   2
   8  31  -2   -14.9    79.6   2
   8  31  -1    59.3    79.8   2
   8  31   1    18.1    93.3   2
   8  31   2   -15.4    98.5   2
   8  31   3   146.6   106.2   2
   8  31   5   -77.5   117.2   2
   8  31   6   394.6   102.3   2
   8  31   7   618.1   110.5   2
   8  32  -9   189.8   115.5   2
   8  32  -7   148.1    99.4   2
   8  32  -5   397.5    71.8   2
   8  32  -3    19.5    98.2   2
   8  32  -1    61.7    94.6   2
   8  32   1  1062.7   118.0   2
   8  32   3  -335.0   128.0   2
   8  33 -10     1.8   146.4   2
   8  33  -9    29.3   136.2   2
   8  33  -7  -155.3   119.0   2
   8  33  -6   117.8    84.7   2
   8  33  -5    32.7   115.9   2
   8  33  -3   388.3   117.1   2
   8  33  -2   131.2   110.7   2
   8  33  -1   170.6   109.3   2
   8  33   2  -239.9   136.0   2
   8  34  -3  -305.1   134.9   2
   8  34   1   563.8   112.7   2
   9   0 -26   256.1   124.3   2
   9   0 -23   508.4    63.0   2
   9   0 -20   -32.7    27.0   2
   9   0 -19    16.8    22.6   2
   9   0 -17   -13.5    20.1   2
   9   0 -14   460.6    25.1   2
   9   0 -13    11.2    17.9   2
   9   0  -8    16.9    14.5   2
   9   0  -5    -2.2    14.4   2
   9   0  -4   937.6    19.0   2
   9   0  -2  1668.3    42.3   2
   9   0  -1   -11.9    13.8   2
   9   0   1     4.6    21.4   2
   9   1 -26   899.2    86.9   2
   9   1 -25  -134.9    66.5   2
   9   1 -24  1139.6    59.2   2
   9   1 -23   -18.6    35.2   2
   9   1 -22  1749.5    41.9   2
   9   1 -21   115.8    25.3   2
   9   1 -20   136.1    21.1   2
   9   1 -19   -10.2    20.6   2
   9   1 -18  2018.6    30.4   2
   9   1 -17   168.9    16.6   2
   9   1 -16    36.7    13.9   2
   9   1 -15  2102.4    28.7   2
   9   1 -14  1873.0    29.9   2
   9   1 -13   874.0    22.4   2
   9   1 -12   719.5    23.1   2
   9   1 -11   165.2    13.3   2
   9   1 -10    -3.3    13.9   2
   9   1  -9   420.3    18.3   2
   9   1  -8    63.2    12.1   2
   9   1  -7   291.3    13.4   2
   9   1  -6    17.2    11.3   2
   9   1  -5    16.2     7.0   2
   9   1  -4    26.7    11.1   2
   9   1  -3    88.8    12.6   2
   9   1  -2    23.0    11.4   2
   9   1  -1    47.2    15.0   2
   9   1   0    75.4    15.9   2
   9   1   1   310.5    17.3   2
   9   1   2  3261.3    92.7   2
   9   1   3   691.3    39.5   2
   9   1   4   359.5    26.4   2
   9   1   5   129.8    29.1   2
   9   1   6    42.8    40.9   2
   9   1   7   746.6    42.9   2
   9   1   8   839.5    44.8   2
   9   1   9   350.8    63.2   2
   9   1  10   237.8    52.7   2
   9   1  12   -91.1    75.9   2
   9   1  17  1251.1   179.5   2
   9   1  18   319.3   165.7   2
   9   1  19   591.9   231.3   2
   9   2 -26    62.7    84.6   2
   9   2 -25   289.4    55.5   2
   9   2 -24    38.0    44.3   2
   9   2 -23   -37.3    36.1   2
   9   2 -22   -44.8    29.7   2
   9   2 -21  3133.3    47.6   2
   9   2 -20    79.8    21.4   2
   9   2 -19  1211.8    26.0   2
   9   2 -18    93.0    16.1   2
   9   2 -17  1333.0    25.5   2
   9   2 -16   163.8    14.6   2
   9   2 -15    12.2    13.4   2
   9   2 -14   142.0    15.5   2
   9   2 -13  1174.0    26.8   2
   9   2 -12  4405.5    66.6   2
   9   2 -11   701.6    22.9   2
   9   2 -10  2097.3    32.5   2
   9   2  -9   466.4    18.7   2
   9   2  -8   354.7    15.4   2
   9   2  -7    13.1     9.8   2
   9   2  -6   115.8    10.0   2
   9   2  -5   272.1    10.9   2
   9   2  -4   510.9    16.0   2
   9   2  -3  1232.3    30.0   2
   9   2  -2   401.8    17.9   2
   9   2   0   419.6    22.1   2
   9   2   1   -15.1    20.6   2
   9   2   2  1427.8    39.8   2
   9   2   3   380.3    26.0   2
   9   2   4   396.3    33.3   2
   9   2   5   531.7    40.5   2
   9   2   6    98.1    24.8   2
   9   2   7   147.5    40.9   2
   9   2   8  2398.7   125.1   2
   9   2  10   571.6    86.2   2
   9   2  11    45.2    64.8   2
   9   2  12   551.4    85.1   2
   9   2  13   384.9   104.3   2
   9   2  15   -34.6   145.6   2
   9   2  17   172.5   173.0   2
   9   3 -26   262.9    64.3   2
   9   3 -25  -132.1    49.1   2
   9   3 -23   102.4    33.5   2
   9   3 -22   -33.9    26.7   2
   9   3 -20   558.7    24.6   2
   9   3 -19   131.1    18.3   2
   9   3 -17  1189.4    23.0   2
   9   3 -16  1776.6    29.1   2
   9   3 -14   101.0    14.0   2
   9   3 -13  1470.9    25.1   2
   9   3 -11   120.4    13.5   2
   9   3 -10   169.1    13.2   2
   9   3  -8    10.5    13.3   2
   9   3  -7  1621.7    27.8   2
   9   3  -5   101.4    10.5   2
   9   3  -4     8.1    11.7   2
   9   3   1    11.2    18.3   2
   9   3   2   134.9    24.3   2
   9   3   4   592.7    44.4   2
   9   3   5   264.1    36.1   2
   9   3   7     9.8    31.3   2
   9   3   8   -26.5    62.4   2
   9   3  10     9.7    93.3   2
   9   3  11  -152.7   104.8   2
   9   3  13    89.3   101.2   2
   9   3  14    16.9   122.9   2
   9   3  16  -211.9   229.0   2
   9   4 -26  -129.3    63.5   2
   9   4 -25  -151.4    50.9   2
   9   4 -24   260.3    47.1   2
   9   4 -23   461.7    35.7   2
   9   4 -22   113.1    37.6   2
   9   4 -21  2006.2    37.1   2
   9   4 -20    80.9    20.2   2
   9   4 -19   287.9    18.2   2
   9   4 -18   193.0    18.4   2
   9   4 -17    51.0    16.8   2
   9   4 -16   113.3    15.0   2
   9   4 -15    96.0    13.1   2
   9   4 -14   243.7    15.2   2
   9   4 -13     0.4    12.6   2
   9   4 -12   110.5    14.5   2
   9   4 -11  3010.8    46.8   2
   9   4 -10   706.8    24.7   2
   9   4  -9   323.2    18.9   2
   9   4  -8  2656.9    33.5   2
   9   4  -7    13.0    12.4   2
   9   4  -6   285.1    11.2   2
   9   4  -5   236.5    14.3   2
   9   4  -4   128.0    11.6   2
   9   4  -2    58.1    12.8   2
   9   4  -1   373.9    17.4   2
   9   4   1   446.7    22.6   2
   9   4   2   159.4    27.3   2
   9   4   3   421.2    27.7   2
   9   4   4     7.2    19.3   2
   9   4   5   327.8    32.2   2
   9   4   7   792.8    42.1   2
   9   4   8   644.1    44.3   2
   9   4  10   248.6    49.9   2
   9   4  11   478.4   100.8   2
   9   4  12   -48.9    71.2   2
   9   4  13   -50.9    93.2   2
   9   4  14  1921.1   160.2   2
   9   4  15    29.5    95.7   2
   9   4  16   -35.4   116.3   2
   9   4  17    63.3   111.0   2
   9   5 -26   278.8    68.0   2
   9   5 -25   -19.8    52.8   2
   9   5 -24  -113.9    42.1   2
   9   5 -22    10.8    29.1   2
   9   5 -21   998.0    30.8   2
   9   5 -20   159.5    21.1   2
   9   5 -19   580.9    22.6   2
   9   5 -17  1114.8    23.8   2
   9   5 -16   -24.0    15.2   2
   9   5 -15  1524.1    23.8   2
   9   5 -14    43.7    15.3   2
   9   5 -13   497.2    16.6   2
   9   5 -12   165.5    13.7   2
   9   5 -11    30.2    14.2   2
   9   5 -10    84.2    14.3   2
   9   5  -9   240.3    13.2   2
   9   5  -8   362.6    15.7   2
   9   5  -7    -5.0    10.2   2
   9   5  -6   342.5    11.1   2
   9   5  -5    58.1    12.2   2
   9   5  -4  1758.0    28.2   2
   9   5   2   218.6    25.5   2
   9   5   3  2061.5    56.7   2
   9   5   4  2092.5    48.3   2
   9   5   6   156.1    45.0   2
   9   5   7   150.3    47.3   2
   9   5   8  2083.0    76.7   2
   9   5  10   610.6    56.1   2
   9   5  11   350.2    66.3   2
   9   5  12  2464.0    94.7   2
   9   5  13   457.6    70.8   2
   9   5  14    53.0    81.2   2
   9   5  15   154.0   101.5   2
   9   5  16    67.2    89.9   2
   9   5  17   -40.4   114.4   2
   9   6 -26   505.6    73.4   2
   9   6 -25   956.9    61.4   2
   9   6 -23   923.6    41.6   2
   9   6 -22     5.5    29.7   2
   9   6 -20  2177.9    36.4   2
   9   6 -19   650.7    25.7   2
   9   6 -17     1.0    16.2   2
   9   6 -16    32.3    15.7   2
   9   6 -14    35.9    14.8   2
   9   6 -13   383.8    16.2   2
   9   6 -11  1527.7    27.4   2
   9   6 -10   214.0    15.5   2
   9   6  -8   579.7    19.6   2
   9   6  -7    51.2     9.6   2
   9   6  -5   231.1    14.3   2
   9   6  -4   611.6    20.8   2
   9   6   2   276.9    18.0   2
   9   6   4   498.1    32.1   2
   9   6   5    35.6    21.9   2
   9   6  13   420.0    73.9   2
   9   6  16    18.9    90.1   2
   9   6  17    95.8   116.6   2
   9   7 -26   -99.1    73.1   2
   9   7 -24    -9.8    46.7   2
   9   7 -23   -44.8    38.2   2
   9   7 -22     6.3    31.7   2
   9   7 -21   793.2    30.9   2
   9   7 -20    34.5    22.7   2
   9   7 -19   380.4    22.2   2
   9   7 -18    92.7    19.1   2
   9   7 -17    17.1    17.7   2
   9   7 -16     9.0    17.9   2
   9   7 -15   104.6    18.2   2
   9   7 -14    81.1    16.4   2
   9   7 -13   990.1    26.0   2
   9   7 -12   138.7    15.9   2
   9   7 -11  1078.9    24.4   2
   9   7 -10   614.8    18.5   2
   9   7  -8    24.3    12.3   2
   9   7  -7  2765.9    31.8   2
   9   7  -6    12.9    11.6   2
   9   7  -5  1360.6    26.0   2
   9   7  -4   523.9    18.8   2
   9   7  -3   324.1    18.2   2
   9   7   2   221.8    17.5   2
   9   7   3    76.0    25.1   2
   9   7   4    22.1    26.1   2
   9   7   5   250.8    24.4   2
   9   7   6  1040.7    38.9   2
   9   7  12  1959.0    85.0   2
   9   7  13   114.4    71.0   2
   9   7  16   -54.3    65.7   2
   9   7  17    47.3    81.3   2
   9   8 -26   273.0    91.3   2
   9   8 -25   751.6    86.2   2
   9   8 -24   268.4    58.1   2
   9   8 -23   229.5    41.1   2
   9   8 -22    27.2    33.5   2
   9   8 -21   287.4    28.5   2
   9   8 -20   -50.9    23.3   2
   9   8 -19  1888.0    39.4   2
   9   8 -18    68.1    22.4   2
   9   8 -16    39.3    18.6   2
   9   8 -15   429.7    19.5   2
   9   8 -14    36.2    15.2   2
   9   8 -13   623.4    20.5   2
   9   8 -12  3776.6    50.2   2
   9   8 -11    34.6    14.9   2
   9   8 -10  1044.2    24.7   2
   9   8  -8   748.7    17.5   2
   9   8  -7   459.7    13.3   2
   9   8  -6   251.2    14.3   2
   9   8  -5   478.4    15.0   2
   9   8  -4  3677.0    61.9   2
   9   8  -3  7490.2   121.1   2
   9   8  -2  1255.4    24.5   2
   9   8   2     3.5    15.4   2
   9   8   3   313.9    20.2   2
   9   8   4   -32.7    26.4   2
   9   8   5  2352.0    49.7   2
   9   8   6    10.0    26.0   2
   9   8   7     4.3    31.5   2
   9   8  10   712.4    44.5   2
   9   8  12   -44.3    39.7   2
   9   8  13  1196.3    62.9   2
   9   8  14  1137.0    72.9   2
   9   8  15   654.6    60.0   2
   9   8  16   -12.1    67.3   2
   9   8  17   105.6    87.6   2
   9   8  18    34.8   106.4   2
   9   9 -23   297.1    62.7   2
   9   9 -20   266.9    30.4   2
   9   9 -16  2093.0    51.6   2
   9   9 -14    71.2    18.8   2
   9   9 -13  2196.5    45.2   2
   9   9 -11  4917.0   136.7   2
   9   9 -10  3706.7    61.1   2
   9   9  -8   266.7    13.3   2
   9   9  -7   129.3    12.7   2
   9   9  -5  2219.0    35.8   2
   9   9  -4   954.2    22.7   2
   9   9  -2   604.0    18.9   2
   9   9  -1    66.2    17.5   2
   9   9   2  2411.3    54.7   2
   9   9   4   147.5    20.5   2
   9   9   7   272.0    34.2   2
   9   9  13   -37.7    50.5   2
   9  10 -25  1640.2    91.6   2
   9  10 -24   799.3    69.4   2
   9  10 -23  -105.1    52.1   2
   9  10 -22   230.8    37.8   2
   9  10 -21   -49.0    27.8   2
   9  10 -20   -23.4    28.5   2
   9  10 -18    40.9    25.2   2
   9  10 -17   383.4    25.6   2
   9  10 -16    20.2    20.1   2
   9  10 -15     8.6    15.5   2
   9  10 -14    41.1    15.0   2
   9  10 -13   516.3    20.1   2
   9  10 -12   421.0    18.0   2
   9  10 -11   867.2    23.8   2
   9  10 -10  2344.6    38.3   2
   9  10  -8   631.8    17.3   2
   9  10  -7   136.9    12.2   2
   9  10  -6   238.2    13.4   2
   9  10  -5   818.6    20.2   2
   9  10  -4  1809.1    30.8   2
   9  10  -3  2647.9    38.7   2
   9  10  -2   185.4    14.5   2
   9  10  -1     9.3    14.8   2
   9  10   2   121.1    18.2   2
   9  10   3   427.7    23.7   2
   9  10   4   733.7    28.8   2
   9  10   5   476.4    22.5   2
   9  10   6    24.3    20.3   2
   9  10   7     8.4    33.5   2
   9  10   8   159.6    29.4   2
   9  10  11  1256.8    52.1   2
   9  10  12    60.1    43.8   2
   9  10  13   755.4    60.5   2
   9  10  14   694.7    72.0   2
   9  10  15  1979.6    81.1   2
   9  10  16   881.0    81.2   2
   9  10  17    35.5    91.9   2
   9  11 -25  -127.1    74.6   2
   9  11 -24   -98.4    58.7   2
   9  11 -23   142.5    43.5   2
   9  11 -22   -14.4    35.2   2
   9  11 -21    50.1    32.9   2
   9  11 -19    90.1    29.5   2
   9  11 -18   -42.9    28.9   2
   9  11 -17    26.5    22.9   2
   9  11 -16  1393.7    31.7   2
   9  11 -15    15.8    17.2   2
   9  11 -14    50.9    14.9   2
   9  11 -13   583.5    19.4   2
   9  11 -12  2072.3    29.7   2
   9  11 -11   547.1    19.9   2
   9  11 -10   282.2    18.8   2
   9  11  -8     7.9    13.4   2
   9  11  -7   126.8    13.1   2
   9  11  -6   961.6    21.6   2
   9  11  -5  2991.0    41.8   2
   9  11  -4    20.6    13.9   2
   9  11  -3   225.9    15.9   2
   9  11  -2  2570.7    45.1   2
   9  11  -1  4538.1    71.0   2
   9  11   1  1583.6    34.7   2
   9  11   2  1481.4    32.0   2
   9  11   3  1521.2    38.0   2
   9  11   4  3019.2    54.2   2
   9  11   5    -9.9    20.0   2
   9  11   6    54.5    22.4   2
   9  11   7    21.5    20.8   2
   9  11   8     4.5    24.0   2
   9  11  10   364.1    29.1   2
   9  11  11   800.3    38.2   2
   9  11  12   337.1    38.3   2
   9  11  13    75.4    42.1   2
   9  11  14   808.4    76.8   2
   9  11  15  -185.5    86.5   2
   9  11  16   -56.1    75.2   2
   9  11  17    96.0    93.9   2
   9  12 -25   190.6    71.0   2
   9  12 -23   162.6    46.3   2
   9  12 -22   -10.1    42.5   2
   9  12 -20   357.3    38.7   2
   9  12 -19   830.0    36.8   2
   9  12 -17    21.1    22.5   2
   9  12 -16   210.5    19.1   2
   9  12 -14   127.1    17.4   2
   9  12 -13   -26.1    16.1   2
   9  12 -11    55.4    15.6   2
   9  12 -10   343.1    16.5   2
   9  12  -8   170.3    15.3   2
   9  12  -7   283.6    14.2   2
   9  12  -5    90.9    15.0   2
   9  12  -4  1129.0    23.5   2
   9  12  -2   164.5    16.4   2
   9  12  -1     4.0    14.3   2
   9  12   1   470.1    20.0   2
   9  12   2    73.6    16.6   2
   9  12   4  1706.2    31.3   2
   9  12   5   690.0    28.4   2
   9  12   7    -6.8    22.3   2
   9  12   8   571.1    30.7   2
   9  12  10   380.1    30.2   2
   9  12  11    17.2    31.6   2
   9  12  13   -27.1    45.0   2
   9  12  14  1536.1    68.0   2
   9  12  16  1284.6   127.2   2
   9  12  17  -200.9    94.4   2
   9  13 -25   800.6    78.0   2
   9  13 -24   258.7    70.8   2
   9  13 -23   355.1    57.7   2
   9  13 -21   158.0    43.6   2
   9  13 -20   -55.8    40.1   2
   9  13 -19   -71.2    32.9   2
   9  13 -18   758.9    85.6   2
   9  13 -17   810.8    29.3   2
   9  13 -16   175.3    19.5   2
   9  13 -15    84.0    19.0   2
   9  13 -14   463.5    20.6   2
   9  13 -12   647.5    20.6   2
   9  13 -11  1303.9    32.5   2
   9  13 -10  2055.6    31.9   2
   9  13  -8   328.2    15.8   2
   9  13  -7   514.6    17.3   2
   9  13  -6   375.0    17.7   2
   9  13  -5  2430.1    43.8   2
   9  13  -4   616.4    19.3   2
   9  13  -3   150.7    17.1   2
   9  13  -2   112.4    17.2   2
   9  13  -1  3057.1    48.3   2
   9  13   1   114.3    15.1   2
   9  13   2   298.8    19.6   2
   9  13   3  1146.9    28.3   2
   9  13   4    -0.4    20.1   2
   9  13   5    57.7    17.3   2
   9  13   6   423.6    21.7   2
   9  13   7    67.9    20.1   2
   9  13   8    59.7    22.1   2
   9  13  10   138.9    29.8   2
   9  13  11   414.8    36.9   2
   9  13  12  2188.9    65.2   2
   9  13  13    93.1    47.5   2
   9  13  14    95.4    55.5   2
   9  13  15   422.7    97.7   2
   9  13  16  -127.2   122.7   2
   9  14 -24  2595.3    96.9   2
   9  14 -23   202.4    72.4   2
   9  14 -22    10.2    49.8   2
   9  14 -21    51.6    47.3   2
   9  14 -20   406.2    45.6   2
   9  14 -19    88.0    47.0   2
   9  14 -18  1631.1    66.6   2
   9  14 -17    54.6    22.0   2
   9  14 -16   729.2    24.4   2
   9  14 -15    -1.5    19.4   2
   9  14 -14  1120.1    49.6   2
   9  14 -13  2165.4    36.0   2
   9  14 -12   304.1    16.9   2
   9  14 -11  1278.0    28.2   2
   9  14 -10   579.6    18.7   2
   9  14  -8   237.3    16.5   2
   9  14  -7    42.6    15.1   2
   9  14  -6  1097.3    27.1   2
   9  14  -5   530.4    22.0   2
   9  14  -4   411.7    19.0   2
   9  14  -3   472.6    21.8   2
   9  14  -2  1426.8    30.4   2
   9  14  -1   118.6    17.1   2
   9  14   1   235.8    17.4   2
   9  14   2  1243.3    27.7   2
   9  14   3   292.0    17.4   2
   9  14   4   923.0    28.2   2
   9  14   5    87.3    18.7   2
   9  14   6    56.8    19.6   2
   9  14   7     0.4    21.2   2
   9  14   8   -14.6    23.8   2
   9  14  10   384.5    41.6   2
   9  14  11   204.2    37.7   2
   9  14  12   682.7    47.8   2
   9  14  13    12.1    49.5   2
   9  14  15   -44.7    68.3   2
   9  14  16  -177.9   126.4   2
   9  15 -23  -149.4    65.8   2
   9  15 -22   379.0    63.3   2
   9  15 -20   254.7    48.7   2
   9  15 -19  1253.8    45.3   2
   9  15 -17    57.8    23.3   2
   9  15 -16  1204.5    34.2   2
   9  15 -14    13.8    20.3   2
   9  15 -13  1035.3    25.2   2
   9  15 -11   896.6    23.1   2
   9  15 -10    18.5    16.5   2
   9  15  -8   531.4    20.5   2
   9  15  -7   868.9    23.9   2
   9  15  -5   515.7    20.6   2
   9  15  -4  2082.5    42.8   2
   9  15  -2   207.0    18.2   2
   9  15  -1    25.9    18.0   2
   9  15   1    62.0    17.6   2
   9  15   2   340.1    19.6   2
   9  15   4     5.3    17.3   2
   9  15   7   -40.3    22.9   2
   9  15   8   -41.9    25.4   2
   9  15  10   217.8    44.1   2
   9  15  11   365.1    40.3   2
   9  15  13   484.3    56.4   2
   9  15  14    46.9    65.0   2
   9  16 -24  -213.5    88.0   2
   9  16 -23   648.9    75.2   2
   9  16 -22   466.9    72.9   2
   9  16 -21    15.5    56.6   2
   9  16 -20   246.0    57.3   2
   9  16 -19    10.0    38.3   2
   9  16 -17    60.6    31.6   2
   9  16 -16   122.1    26.3   2
   9  16 -15    61.4    23.3   2
   9  16 -14  1930.1    38.4   2
   9  16 -13    74.3    19.5   2
   9  16 -12    27.8    17.4   2
   9  16 -11   130.1    18.8   2
   9  16 -10  1124.9    27.0   2
   9  16  -8   769.3    24.1   2
   9  16  -7   329.8    20.4   2
   9  16  -6   -30.8    16.1   2
   9  16  -5    42.0    18.7   2
   9  16  -4    83.3    18.6   2
   9  16  -3   598.3    23.7   2
   9  16  -2   497.6    22.7   2
   9  16  -1   844.3    26.0   2
   9  16   1   342.4    20.7   2
   9  16   2  3100.9    56.8   2
   9  16   3   194.0    19.5   2
   9  16   4   778.5    25.8   2
   9  16   5    14.5    23.6   2
   9  16   6  1476.0    37.1   2
   9  16   7   638.2    29.8   2
   9  16   8    51.7    26.9   2
   9  16   9   -37.6    35.5   2
   9  16  10   -47.2    45.5   2
   9  16  11     2.7    52.0   2
   9  16  12   205.8    49.6   2
   9  16  13   -71.5    56.8   2
   9  16  14  -120.3    68.2   2
   9  16  15    52.6    82.2   2
   9  17 -23  -285.2    98.6   2
   9  17 -21   245.6    65.4   2
   9  17 -20   316.3    50.0   2
   9  17 -19    67.4    42.2   2
   9  17 -16   -39.8    28.8   2
   9  17 -15   178.1    27.5   2
   9  17 -14   271.0    25.7   2
   9  17 -13   630.6    24.0   2
   9  17 -12    -5.6    18.2   2
   9  17 -11   -41.5    19.7   2
   9  17 -10   187.2    20.0   2
   9  17  -8  1531.1    31.4   2
   9  17  -7    86.6    18.2   2
   9  17  -6   272.0    19.2   2
   9  17  -5   395.2    22.9   2
   9  17  -4  1119.0    30.8   2
   9  17  -3   -11.9    18.0   2
   9  17  -2   668.3    22.5   2
   9  17   1   496.4    28.3   2
   9  17   2    99.9    18.8   2
   9  17   3   372.2    22.3   2
   9  17   4   483.5    23.8   2
   9  17   5   469.8    30.1   2
   9  17   6   -10.2    29.1   2
   9  17   7   319.3    29.0   2
   9  17  10   108.1    49.6   2
   9  17  11  -112.9    57.4   2
   9  17  12    26.4    68.5   2
   9  17  13    21.6    61.7   2
   9  17  14  -239.1    74.3   2
   9  17  15    18.5    88.7   2
   9  17  16   662.5   113.4   2
   9  18 -23   979.8   111.3   2
   9  18 -22   497.9    90.8   2
   9  18 -20   636.0    49.1   2
   9  18 -19    52.6    43.8   2
   9  18 -17   517.7    37.6   2
   9  18 -16    27.1    30.8   2
   9  18 -13    60.7    21.7   2
   9  18 -11    13.6    21.2   2
   9  18 -10   124.4    20.8   2
   9  18  -8   143.4    17.9   2
   9  18  -7    57.3    19.8   2
   9  18  -5   242.9    20.3   2
   9  18  -4    60.6    19.1   2
   9  18  -2   435.7    22.4   2
   9  18  -1  1350.5    32.6   2
   9  18   1    36.3    28.2   2
   9  18   2    44.6    22.6   2
   9  18   5    36.8    37.0   2
   9  18   7    40.1    29.1   2
   9  18  10    18.9    53.9   2
   9  18  11   145.2    63.8   2
   9  18  16    64.4   119.9   2
   9  19 -23  1466.4   128.0   2
   9  19 -22   -35.5    73.2   2
   9  19 -21  1580.0    66.8   2
   9  19 -17   523.3    41.8   2
   9  19 -16    95.3    34.7   2
   9  19 -15    18.8    30.8   2
   9  19 -14   184.9    24.9   2
   9  19 -13   647.3    27.1   2
   9  19 -12   -20.3    24.5   2
   9  19 -11   531.6    26.4   2
   9  19 -10   180.9    40.0   2
   9  19  -8   130.8    22.4   2
   9  19  -7    20.8    21.6   2
   9  19  -6   -26.1    21.6   2
   9  19  -5   854.0    24.4   2
   9  19  -4   -17.2    17.9   2
   9  19  -3   130.7    22.0   2
   9  19  -2   383.3    24.1   2
   9  19  -1     4.8    19.2   2
   9  19   1    11.3    22.8   2
   9  19   2    52.5    24.7   2
   9  19   3   319.2    24.5   2
   9  19   4   -45.4    23.8   2
   9  19   5    11.2    34.2   2
   9  19   6   190.3    46.6   2
   9  19   7  1394.3    53.4   2
   9  19   8    40.8    35.9   2
   9  19  11   530.3    72.7   2
   9  19  12    22.8    82.5   2
   9  19  13   687.6   104.5   2
   9  19  15   -63.9   107.4   2
   9  20 -22   -67.3    88.5   2
   9  20 -21  -123.9    60.6   2
   9  20 -19   -56.4    51.4   2
   9  20 -17     1.6    42.9   2
   9  20 -16    30.9    38.1   2
   9  20 -15    78.2    30.0   2
   9  20 -14    16.3    27.0   2
   9  20 -13   -41.5    28.7   2
   9  20 -12   151.7    28.2   2
   9  20 -11   305.6    27.7   2
   9  20 -10    10.5    24.4   2
   9  20  -8  1261.3    33.9   2
   9  20  -7    -6.7    23.1   2
   9  20  -6   622.6    27.1   2
   9  20  -5   362.5    22.5   2
   9  20  -4   402.2    22.2   2
   9  20  -3     7.8    22.6   2
   9  20  -2     6.2    34.2   2
   9  20  -1   528.8    25.0   2
   9  20   1   124.7    26.0   2
   9  20   2     8.6    26.8   2
   9  20   3    -6.2    24.2   2
   9  20   4   384.5    28.7   2
   9  20   5    61.6    34.5   2
   9  20   6    -6.6    37.6   2
   9  20   7     1.6    41.6   2
   9  20   8    -7.5    38.1   2
   9  20   9   221.0    48.5   2
   9  20  10   -25.2    49.5   2
   9  20  12    40.7    92.2   2
   9  20  13   -33.1   113.6   2
   9  20  14    57.1   132.5   2
   9  20  15     7.0   113.7   2
   9  21 -22  -103.7    79.1   2
   9  21 -20   765.8    72.4   2
   9  21 -19   229.9   128.3   2
   9  21 -17    60.7    47.0   2
   9  21 -16   164.3    42.9   2
   9  21 -14   308.8    32.6   2
   9  21 -13   -10.7    35.3   2
   9  21 -11   778.1    42.3   2
   9  21 -10    63.3    23.8   2
   9  21  -8   424.9    28.7   2
   9  21  -7   377.7    27.3   2
   9  21  -5   318.5    23.8   2
   9  21  -4   288.2    26.3   2
   9  21  -2   -29.3    24.4   2
   9  21  -1    39.4    22.3   2
   9  21   1    78.1    31.5   2
   9  21   2  1406.1    44.4   2
   9  21   4    49.8    28.9   2
   9  21   5   -11.0    29.4   2
   9  21   7   667.5    54.0   2
   9  21   8    89.8    54.7   2
   9  21  10   187.7    56.0   2
   9  21  11  1526.9    76.2   2
   9  21  13    34.2   123.1   2
   9  21  14   778.5   156.0   2
   9  22 -21    53.5    87.5   2
   9  22 -19   251.7    68.6   2
   9  22 -18   204.5    60.8   2
   9  22 -17   -89.2    55.5   2
   9  22 -16   336.1    41.2   2
   9  22 -15   -21.8    36.3   2
   9  22 -14   111.5    40.3   2
   9  22 -12   430.4    37.7   2
   9  22 -10     2.3    26.4   2
   9  22  -8   -19.9    29.1   2
   9  22  -7   189.8    28.9   2
   9  22  -6   -28.0    27.2   2
   9  22  -5  1385.5    35.8   2
   9  22  -4   516.7    31.1   2
   9  22  -2     2.4    26.6   2
   9  22  -1   206.7    25.7   2
   9  22   1   386.1    34.4   2
   9  22   2   192.4    35.1   2
   9  22   3    30.9    34.9   2
   9  22   4   145.0    36.7   2
   9  22   5   -74.7    33.5   2
   9  22   6  1118.8    58.2   2
   9  22   7   -49.9    53.5   2
   9  22   8   -83.9    58.9   2
   9  22   9   420.7    59.7   2
   9  22  10   274.3    63.1   2
   9  22  12   -65.1   115.4   2
   9  22  14   499.4   171.5   2
   9  23 -20    69.6    89.1   2
   9  23 -19    23.4    77.1   2
   9  23 -17   266.6    61.9   2
   9  23 -15   -83.2    40.4   2
   9  23 -14   544.4    49.0   2
   9  23 -13   362.3    45.0   2
   9  23 -12   262.2    41.1   2
   9  23 -11   928.2    44.3   2
   9  23 -10   905.8    36.3   2
   9  23  -8    19.9    33.3   2
   9  23  -7  1350.1    46.3   2
   9  23  -6   -10.6    30.2   2
   9  23  -5    -0.9    25.7   2
   9  23  -4    51.2    31.4   2
   9  23  -2   -42.5    30.0   2
   9  23  -1    -8.2    26.5   2
   9  23   1   427.5    38.0   2
   9  23   2   161.3    39.2   2
   9  23   3    19.8    39.9   2
   9  23   4   -90.7    35.1   2
   9  23   5    54.4    38.1   2
   9  23   6   -74.8    54.2   2
   9  23   8   -26.7    66.1   2
   9  23  10    11.7    66.3   2
   9  23  11   226.5    77.9   2
   9  24 -20   578.0   107.0   2
   9  24 -17   126.4    55.7   2
   9  24 -16    -3.2    51.1   2
   9  24 -14   152.2    58.7   2
   9  24 -13    13.9    49.6   2
   9  24 -11  1849.6    52.6   2
   9  24 -10  1161.2    42.9   2
   9  24  -7     4.0    35.5   2
   9  24  -5  1289.3    39.4   2
   9  24  -4   327.7    35.2   2
   9  24  -2   691.1    39.8   2
   9  24  -1   213.3    30.2   2
   9  24   1   402.6    42.8   2
   9  24   2    42.5    40.3   2
   9  24   4  1705.2    57.2   2
   9  24   5   147.1    41.3   2
   9  24   7   119.1    67.9   2
   9  24  10   570.1    77.7   2
   9  24  11   -57.9    88.0   2
   9  25 -19   209.7   106.9   2
   9  25 -17   160.2    70.5   2
   9  25 -15    54.5    63.7   2
   9  25 -14   405.0    61.7   2
   9  25 -13   382.9    56.3   2
   9  25 -12   -49.4    50.7   2
   9  25 -11   -93.0    39.1   2
   9  25 -10   -73.1    37.4   2
   9  25  -7   162.8    40.6   2
   9  25  -5   309.6    32.7   2
   9  25  -4  -147.4    38.6   2
   9  25  -3     5.4    37.6   2
   9  25  -2    26.8    38.5   2
   9  25  -1   296.7    34.5   2
   9  25   1   240.9    46.9   2
   9  25   4   151.1    42.8   2
   9  25   5   126.1    47.0   2
   9  25   6    13.4    70.2   2
   9  25   7   391.5    82.4   2
   9  25   8   -50.0    88.5   2
   9  25  10   -65.9    83.5   2
   9  25  11    71.1    98.7   2
   9  25  12   757.9   121.2   2
   9  26 -16   -54.7    81.8   2
   9  26 -15    -9.8    74.7   2
   9  26 -14   101.5    69.3   2
   9  26 -13    81.1    62.2   2
   9  26 -12   -12.3    58.0   2
   9  26 -11   227.8    45.6   2
   9  26 -10    74.9    41.3   2
   9  26  -8   309.9    50.3   2
   9  26  -7   108.7    45.1   2
   9  26  -5    15.7    34.9   2
   9  26  -3    59.8    43.4   2
   9  26  -2   -41.3    42.3   2
   9  26  -1   262.6    38.4   2
   9  26   1     7.5    49.9   2
   9  26   2  1203.9    66.1   2
   9  26   4    22.2    58.6   2
   9  26   5    10.6    52.5   2
   9  26   6   662.9    62.1   2
   9  26   7   -38.1    85.8   2
   9  26   9    33.9   111.7   2
   9  26  10    28.1   125.8   2
   9  26  11  -103.9   109.3   2
   9  27 -17   172.8    83.9   2
   9  27 -14   -23.6    82.3   2
   9  27 -13    73.9    75.5   2
   9  27 -11   267.8    52.8   2
   9  27 -10   139.5    61.2   2
   9  27  -8   -88.2    55.4   2
   9  27  -7   196.7    52.6   2
   9  27  -5   895.5    46.9   2
   9  27  -4   -22.9    48.9   2
   9  27  -2    31.3    49.7   2
   9  27  -1   287.1    42.4   2
   9  27   1    54.6    56.9   2
   9  27   2   -24.8    57.9   2
   9  27   4   -28.6    69.0   2
   9  27   5   -71.0    59.7   2
   9  28 -16   -98.0   113.6   2
   9  28 -15   767.1   112.5   2
   9  28 -13  -121.8    85.2   2
   9  28 -12  1524.8    74.7   2
   9  28 -11   606.9    63.1   2
   9  28 -10   174.2    70.3   2
   9  28  -8   178.7    62.5   2
   9  28  -7   477.4    62.3   2
   9  28  -6   130.8    45.8   2
   9  28  -5   -95.0    43.2   2
   9  28  -4   438.6    60.8   2
   9  28  -2    10.8    55.9   2
   9  28  -1    95.7    47.2   2
   9  28   1   -65.0    67.5   2
   9  28   2   -64.2    71.9   2
   9  28   3   146.9    74.1   2
   9  28   4   -88.8    75.8   2
   9  28   5    10.4    68.4   2
   9  28   6    -7.9    72.9   2
   9  29 -15   205.2   125.0   2
   9  29 -14    17.1   111.9   2
   9  29 -13    55.4   102.4   2
   9  29 -12  -103.2    70.8   2
   9  29 -11   325.4    67.4   2
   9  29 -10   360.3    82.4   2
   9  29  -8  -204.6    73.0   2
   9  29  -7   -11.7    67.4   2
   9  29  -6   -25.5    52.5   2
   9  29  -5   -29.4    51.7   2
   9  29  -4    69.2    65.6   2
   9  29  -2   -35.5    65.7   2
   9  29  -1  2087.8    77.6   2
   9  29   1  1645.2    96.3   2
   9  29   3   180.3    90.8   2
   9  29   4   -66.8    91.1   2
   9  29   5   149.6    76.6   2
   9  29   6    25.6    85.3   2
   9  30 -14   242.5   134.0   2
   9  30 -13    41.6   117.4   2
   9  30 -11   223.7    75.8   2
   9  30 -10   644.4    96.8   2
   9  30  -8   226.4    82.3   2
   9  30  -7   198.7    77.7   2
   9  30  -5   -11.8    76.6   2
   9  30  -4  2223.2    98.7   2
   9  30  -2  1193.9    90.0   2
   9  30  -1   -83.0    77.2   2
   9  30   1  -136.5    89.6   2
   9  30   2   917.3   104.8   2
   9  30   4    54.3   106.3   2
   9  30   5   -11.8    89.1   2
   9  31 -13   584.8   103.4   2
   9  31 -10    59.4   111.4   2
   9  31  -8  -200.9    98.9   2
   9  31  -7   134.5    93.2   2
   9  31  -6   132.2    68.1   2
   9  31  -4   424.4    92.1   2
   9  31  -3   457.5    94.9   2
   9  31  -2   -45.5    87.1   2
   9  31  -1    92.2    90.9   2
   9  31   1   412.8   102.5   2
   9  31   2  -206.9   115.1   2
   9  31   3   -49.4   122.5   2
   9  31   6   -54.0   113.6   2
   9  32 -10   -79.8   135.4   2
   9  32  -7   156.5   110.8   2
   9  32  -6    10.8    80.4   2
   9  32  -5   260.5   111.0   2
   9  32  -4  -132.6   108.6   2
   9  32  -2   -61.0   104.2   2
   9  32  -1  -199.1   105.4   2
   9  32   2  1811.7   153.9   2
   9  32   3   559.5   149.4   2
   9  32   4  -174.9   151.7   2
   9  33  -8     9.3   138.4   2
   9  33  -4   -94.4   126.9   2
   9  33  -2   859.1   134.5   2
   9  34  -4  -122.3   148.9   2
   9  34  -2   -96.3   153.4   2
  10   0 -23   114.4    50.2   2
  10   0 -21     1.6    33.5   2
  10   0 -19   105.5    26.1   2
  10   0 -13    -2.6    23.9   2
  10   0  -7   -21.4    21.3   2
  10   0  -3    53.9    25.9   2
  10   0  -1   -29.3    28.3   2
  10   1 -26   -85.2    90.5   2
  10   1 -25    96.8    58.0   2
  10   1 -24   352.9    48.4   2
  10   1 -23    32.6    38.6   2
  10   1 -22   248.9    29.9   2
  10   1 -21     1.6    23.7   2
  10   1 -20   444.1    31.1   2
  10   1 -19   906.4    25.5   2
  10   1 -18   533.1    24.1   2
  10   1 -17    20.1    21.0   2
  10   1 -16   336.1    26.8   2
  10   1 -15    27.2    21.1   2
  10   1 -14   350.6    21.0   2
  10   1 -13    35.7    20.7   2
  10   1 -12    11.8    19.2   2
  10   1 -11    92.2    25.0   2
  10   1  -9  1662.3    60.3   2
  10   1  -8     8.5    25.8   2
  10   1  -7  1251.2    38.6   2
  10   1  -6   103.1    14.0   2
  10   1  -5    28.3    16.7   2
  10   1  -4  2520.8    92.5   2
  10   1  -3    40.4    20.9   2
  10   1  -2  2118.1    65.5   2
  10   1  -1   253.2    35.1   2
  10   1   0  1274.5    56.4   2
  10   1   1   340.4    31.6   2
  10   1   2  7371.8   265.7   2
  10   1   3   590.9    54.6   2
  10   1   8   -77.9    95.4   2
  10   1   9   -25.6    91.2   2
  10   2 -25   -74.6    59.0   2
  10   2 -23   838.0    44.0   2
  10   2 -21    94.7    26.7   2
  10   2 -19   679.7    23.8   2
  10   2 -17   287.5    19.8   2
  10   2 -15  1892.1    47.1   2
  10   2 -13   608.2    33.7   2
  10   2 -11    45.8    15.6   2
  10   2  -9  1004.8    36.0   2
  10   2  -7  3479.3    80.0   2
  10   2  -5     0.7    16.0   2
  10   2   1  2045.5   104.6   2
  10   2   3    37.1    40.2   2
  10   2   7   284.9    85.2   2
  10   3 -26    35.0    74.5   2
  10   3 -25   291.8    61.1   2
  10   3 -24   434.1    54.2   2
  10   3 -23   243.8    40.3   2
  10   3 -22   -39.5    31.6   2
  10   3 -21    42.3    26.7   2
  10   3 -19  1046.8    30.4   2
  10   3 -18   282.0    26.5   2
  10   3 -17   383.3    23.0   2
  10   3 -16    13.9    20.9   2
  10   3 -15   183.0    21.6   2
  10   3 -14   -20.5    18.0   2
  10   3 -13  7112.2   150.1   2
  10   3 -12    14.4    19.4   2
  10   3 -11  2361.3    43.7   2
  10   3  -9  1965.3    50.8   2
  10   3  -8  3573.9    73.1   2
  10   3  -7   152.2    18.7   2
  10   3  -6  1198.4    30.5   2
  10   3   2   564.2    74.8   2
  10   4 -25   108.1    61.8   2
  10   4 -23   262.8    42.7   2
  10   4 -21   -40.3    28.4   2
  10   4 -19  1333.3    36.3   2
  10   4 -17  1200.2    27.9   2
  10   4 -15   277.2    21.2   2
  10   4 -13   245.4    22.8   2
  10   4 -11   113.7    25.5   2
  10   4  -9   653.6    22.7   2
  10   4  -7  1530.5    43.1   2
  10   4   3    53.1    47.7   2
  10   4   5   266.3    78.2   2
  10   5 -26   -12.3    72.4   2
  10   5 -24   100.0    46.7   2
  10   5 -23   -75.8    37.4   2
  10   5 -22    47.9    31.8   2
  10   5 -21   103.8    29.6   2
  10   5 -19   379.9    24.5   2
  10   5 -18   -13.1    20.1   2
  10   5 -17   741.7    23.7   2
  10   5 -16    13.8    16.4   2
  10   5 -14   -16.1    17.4   2
  10   5 -13  1216.7    33.7   2
  10   5 -12   222.5    19.9   2
  10   5 -11  1060.5    35.3   2
  10   5  -9  2258.2    42.1   2
  10   5  -8  1988.9    48.3   2
  10   5  -7   337.1    23.6   2
  10   5  -6  2854.6    58.4   2
  10   5   3    53.5    51.8   2
  10   5   4   369.3    50.2   2
  10   6 -25  1452.0    69.9   2
  10   6 -23   119.0    40.5   2
  10   6 -21   121.5    30.4   2
  10   6 -19   644.1    27.3   2
  10   6 -17   953.3    26.7   2
  10   6 -15   202.5    19.1   2
  10   6 -13    97.0    18.4   2
  10   6 -11    83.7    17.9   2
  10   6  -9   984.4    32.9   2
  10   6  -7  5171.3    73.0   2
  10   6  -5  3147.2    75.1   2
  10   6   5  1243.8    58.6   2
  10   7 -26   874.4    83.8   2
  10   7 -25    -8.4    63.8   2
  10   7 -24   -56.8    50.3   2
  10   7 -23   -62.2    41.2   2
  10   7 -22   236.3    35.1   2
  10   7 -21    -5.0    35.5   2
  10   7 -19   387.3    26.3   2
  10   7 -18   452.9    24.5   2
  10   7 -16   310.0    22.8   2
  10   7 -15   602.8    21.2   2
  10   7 -14   524.2    21.5   2
  10   7 -13    31.5    18.5   2
  10   7 -12    13.9    16.9   2
  10   7 -11    77.9    19.7   2
  10   7 -10   645.6    27.6   2
  10   7  -9  3009.8    65.2   2
  10   7  -8  5232.0    79.3   2
  10   7  -7  1784.4    31.8   2
  10   7  -6   618.4    24.0   2
  10   7  -5   683.5    22.3   2
  10   7  -4  4351.8   103.5   2
  10   7   2   301.0    26.9   2
  10   7   5    96.3    34.0   2
  10   8 -25   150.2    67.0   2
  10   8 -23   974.4    50.2   2
  10   8 -21     4.7    31.1   2
  10   8 -19    47.0    26.4   2
  10   8 -17   377.5    25.9   2
  10   8 -15    41.2    17.2   2
  10   8 -13   155.6    15.2   2
  10   8 -11    95.7    20.5   2
  10   8  -9  5751.3    88.2   2
  10   8  -7   155.7    14.3   2
  10   8  -5   442.1    19.8   2
  10   8  -3   878.7    28.9   2
  10   8  17    78.2   114.0   2
  10   9 -26    26.2   144.3   2
  10   9 -25  -129.3    70.7   2
  10   9 -24   523.5    58.7   2
  10   9 -23   -52.5    39.6   2
  10   9 -22   639.5    41.2   2
  10   9 -21   674.7    92.5   2
  10   9 -20   251.2    52.2   2
  10   9 -18   -18.4    28.1   2
  10   9 -17   193.7    24.9   2
  10   9 -16   325.2    20.5   2
  10   9 -15   143.4    16.0   2
  10   9 -14    -5.8    14.3   2
  10   9 -13   146.4    14.1   2
  10   9 -12   228.1    15.4   2
  10   9 -11   673.7    20.3   2
  10   9 -10   496.5    28.6   2
  10   9  -9   362.6    16.5   2
  10   9  -8  2111.3    32.8   2
  10   9  -7    21.1    14.4   2
  10   9  -6    78.4    14.5   2
  10   9  -3   831.5    25.6   2
  10   9   3  1016.6    40.3   2
  10   9  10    48.9    54.9   2
  10   9  13   -68.1    69.3   2
  10   9  14   -12.4    83.4   2
  10   9  17  1069.0   128.2   2
  10  10 -23  1491.8    61.0   2
  10  10 -17   306.9    34.5   2
  10  10 -13   256.1    15.6   2
  10  10 -11   588.2    21.1   2
  10  10  -9  1346.6    24.8   2
  10  10  -7    -4.7    13.0   2
  10  10  -3   765.6    25.7   2
  10  10   3    28.0    27.4   2
  10  10   9   467.5    51.6   2
  10  10  13   209.8    73.7   2
  10  11 -25   248.0    66.3   2
  10  11 -24    14.6    55.5   2
  10  11 -23   651.9    53.4   2
  10  11 -22   697.6    51.2   2
  10  11 -20   174.7    41.2   2
  10  11 -19   611.4    41.2   2
  10  11 -18   915.8    39.3   2
  10  11 -17    -3.2    22.7   2
  10  11 -16    14.6    18.5   2
  10  11 -15   -16.1    17.0   2
  10  11 -14  1014.8    24.2   2
  10  11 -13   489.6    19.9   2
  10  11 -12    21.0    13.6   2
  10  11 -11     0.3    15.2   2
  10  11  -9   -21.3    13.1   2
  10  11  -8   730.2    19.8   2
  10  11  -7    69.7    14.4   2
  10  11  -6   651.5    23.2   2
  10  11  -4   384.3    17.4   2
  10  11  -3    17.5    17.6   2
  10  11  -2     5.8    18.2   2
  10  11  -1    48.7    19.6   2
  10  11   1  1437.0    42.2   2
  10  11   3   333.6    32.5   2
  10  11   4    35.7    31.8   2
  10  11   6   117.9    30.2   2
  10  11  12   111.4    61.7   2
  10  11  13   137.5    74.2   2
  10  11  14  1589.0   111.9   2
  10  11  15   419.1   118.5   2
  10  11  17  -289.3   122.6   2
  10  12 -25   233.7    74.2   2
  10  12 -23   -89.8    61.7   2
  10  12 -21     9.0    46.9   2
  10  12 -19   -41.5    37.5   2
  10  12 -17    31.9    21.3   2
  10  12 -15     0.6    29.6   2
  10  12 -13   -14.5    17.0   2
  10  12 -11  1651.6    29.3   2
  10  12  -9   263.6    15.9   2
  10  12  -7   692.9    20.5   2
  10  12  -5   737.2    22.2   2
  10  12  -3  1143.0    32.3   2
  10  12  -1    15.0    16.2   2
  10  12   3   286.0    32.3   2
  10  12   5   -12.3    27.9   2
  10  12   7     0.8    36.1   2
  10  12   9    73.1    37.6   2
  10  12  11    37.5    40.4   2
  10  12  13   329.4    59.2   2
  10  12  15    35.1   120.0   2
  10  13 -25   354.0    91.4   2
  10  13 -24   -90.7    73.2   2
  10  13 -22   -84.9    61.2   2
  10  13 -21  1825.2    68.9   2
  10  13 -19   -50.5    40.7   2
  10  13 -18    28.5    29.9   2
  10  13 -17  2357.2    43.9   2
  10  13 -16    62.1    19.9   2
  10  13 -15   363.4    23.4   2
  10  13 -14   100.1    19.8   2
  10  13 -13   511.8    25.4   2
  10  13 -12   670.4    20.1   2
  10  13 -11    98.8    15.0   2
  10  13  -9  1150.7    24.8   2
  10  13  -8    77.7    14.7   2
  10  13  -7  1964.9    34.9   2
  10  13  -6   -14.2    14.5   2
  10  13  -5   669.8    23.0   2
  10  13  -4    34.2    16.2   2
  10  13  -3     8.7    17.0   2
  10  13  -2   168.2    18.2   2
  10  13  -1    99.3    17.5   2
  10  13   1   185.1    21.5   2
  10  13   2  2211.2    46.9   2
  10  13   3   511.2    29.5   2
  10  13   4   158.7    21.7   2
  10  13   5   198.6    31.2   2
  10  13   6   286.1    35.6   2
  10  13   7   298.4    40.2   2
  10  13   8    42.2    34.1   2
  10  13   9  1444.8    53.3   2
  10  13  11   158.0    43.7   2
  10  13  12    10.6    51.2   2
  10  13  13    66.6    60.4   2
  10  13  14   282.8    75.4   2
  10  13  15  -128.8    83.4   2
  10  14 -23    81.7    82.7   2
  10  14 -21   211.9    57.2   2
  10  14 -19    23.0    34.6   2
  10  14 -17   983.4    31.2   2
  10  14 -15   196.5    23.3   2
  10  14 -13    39.5    17.4   2
  10  14 -11   483.8    18.8   2
  10  14  -9   315.9    17.8   2
  10  14  -7     6.3    15.2   2
  10  14  -3   816.2    23.8   2
  10  14  -1    97.7    19.1   2
  10  14   1   327.4    19.8   2
  10  14   3  1861.2    39.4   2
  10  14   5    -1.7    25.2   2
  10  14   7  1090.3    36.8   2
  10  14   9    52.1    41.9   2
  10  14  11   390.1    47.4   2
  10  14  13   -54.7    64.8   2
  10  14  15   675.9    97.1   2
  10  15 -24    30.5    91.4   2
  10  15 -23   195.1    92.8   2
  10  15 -22     2.5    76.0   2
  10  15 -21   -62.2    62.3   2
  10  15 -19   135.9    32.4   2
  10  15 -18   -53.3    29.0   2
  10  15 -17   -76.1    28.8   2
  10  15 -16   772.4    32.8   2
  10  15 -14   957.8    31.3   2
  10  15 -13    11.2    18.7   2
  10  15 -12   -26.5    17.7   2
  10  15 -11     8.9    18.2   2
  10  15  -9     0.7    15.5   2
  10  15  -8    82.5    15.0   2
  10  15  -7   395.6    19.5   2
  10  15  -6   440.5    20.2   2
  10  15  -4    38.8    16.7   2
  10  15  -3   763.4    23.5   2
  10  15  -2    -7.9    15.5   2
  10  15  -1   378.2    18.2   2
  10  15   1   267.1    20.8   2
  10  15   2    42.1    17.8   2
  10  15   3   515.1    22.7   2
  10  15   4   357.3    22.8   2
  10  15   6   419.2    27.9   2
  10  15   7    -7.3    28.2   2
  10  15   8   568.0    35.5   2
  10  15   9   423.3    37.7   2
  10  15  11   352.1    49.3   2
  10  15  12   284.4    57.6   2
  10  15  13    49.3    68.7   2
  10  15  14   128.1    82.9   2
  10  15  16   -33.8   119.9   2
  10  16 -23  -159.8    92.3   2
  10  16 -21   148.3    70.6   2
  10  16 -19    40.9    35.3   2
  10  16 -17   -14.9    32.0   2
  10  16 -15   -13.5    26.6   2
  10  16 -11    -2.6    19.9   2
  10  16  -9    30.2    16.7   2
  10  16  -7    91.1    19.4   2
  10  16  -5    37.5    15.8   2
  10  16  -3   424.4    21.0   2
  10  16  -1   279.9    19.0   2
  10  16   1   209.4    22.0   2
  10  16   3  1754.9    38.2   2
  10  16   5   156.2    32.5   2
  10  16   7   491.8    33.8   2
  10  16   9   133.9    37.6   2
  10  16  11   149.3    69.6   2
  10  16  13   178.6    73.1   2
  10  16  15   127.6   106.0   2
  10  17 -23    49.2   106.0   2
  10  17 -22   493.0    93.4   2
  10  17 -21  1009.4    69.7   2
  10  17 -20    38.6    43.9   2
  10  17 -19    47.2    37.8   2
  10  17 -18   -49.5    51.8   2
  10  17 -17   266.2    47.9   2
  10  17 -16   488.1    34.5   2
  10  17 -15     5.3    28.8   2
  10  17 -14  3327.8    58.4   2
  10  17 -13   314.3    37.1   2
  10  17 -12  1075.8    31.6   2
  10  17 -11    14.8    21.6   2
  10  17  -9   156.2    18.9   2
  10  17  -8   176.2    18.6   2
  10  17  -7   242.5    21.0   2
  10  17  -6   202.1    20.7   2
  10  17  -5  1887.8    45.7   2
  10  17  -4   468.5    20.1   2
  10  17  -3   113.1    20.1   2
  10  17  -2   496.4    21.2   2
  10  17  -1   -27.0    18.0   2
  10  17   1  1733.4    38.4   2
  10  17   2    71.3    21.1   2
  10  17   3   260.5    22.9   2
  10  17   4    82.6    23.3   2
  10  17   5   435.7    38.2   2
  10  17   6   -19.8    34.6   2
  10  17   8    26.6    34.9   2
  10  17   9   213.8    42.6   2
  10  17  11   -96.2    74.4   2
  10  17  13   -83.3    77.0   2
  10  17  14   -29.6    93.6   2
  10  17  15   208.8   115.9   2
  10  18 -23  -195.1   116.3   2
  10  18 -21   423.2    56.5   2
  10  18 -19   658.7    52.1   2
  10  18 -17    44.2    38.8   2
  10  18 -15   377.2    29.2   2
  10  18 -13   -18.2    22.2   2
  10  18 -11   310.6    25.2   2
  10  18  -7   264.6    23.1   2
  10  18  -5    60.4    19.7   2
  10  18  -3   741.6    27.4   2
  10  18  -1   315.5    25.2   2
  10  18   1   -23.1    24.0   2
  10  18   3   523.0    27.4   2
  10  18   5   -49.9    35.2   2
  10  18   7    44.9    34.4   2
  10  18   9    53.5    45.3   2
  10  18  11   188.4    82.3   2
  10  18  15  -309.9   126.5   2
  10  19 -22    10.2    85.2   2
  10  19 -21    31.0    58.8   2
  10  19 -18   310.9    48.8   2
  10  19 -17   973.3    50.8   2
  10  19 -16   635.4    42.7   2
  10  19 -15  1336.6    45.3   2
  10  19 -14   138.8    27.6   2
  10  19 -13    16.2    29.6   2
  10  19 -12   477.0    31.6   2
  10  19 -11    -6.4    26.4   2
  10  19  -8   293.2    25.5   2
  10  19  -7    21.0    23.2   2
  10  19  -6    -2.8    20.0   2
  10  19  -4   154.7    20.2   2
  10  19  -3   311.3    24.4   2
  10  19  -2     8.5    20.4   2
  10  19  -1    58.7    21.5   2
  10  19   1    29.5    26.6   2
  10  19   2    -5.0    27.2   2
  10  19   3    21.7    25.8   2
  10  19   4  1585.8    43.6   2
  10  19   5  1007.5    48.1   2
  10  19   6   451.5    45.6   2
  10  19   7   131.4    47.6   2
  10  19   8   698.0    49.1   2
  10  19  11   524.1    93.5   2
  10  19  12   -98.1   105.0   2
  10  19  14   -23.4   109.6   2
  10  20 -21   293.6    78.8   2
  10  20 -19   165.4    58.9   2
  10  20 -13    64.3    33.9   2
  10  20 -11   136.4    29.4   2
  10  20  -9   324.7    24.2   2
  10  20  -7   -12.5    25.0   2
  10  20  -3   332.8    27.0   2
  10  20   1  1199.4    43.1   2
  10  20   3    53.3    28.0   2
  10  20   9  1544.1    82.1   2
  10  20  11   -80.6    66.5   2
  10  21 -19   -65.6    67.1   2
  10  21 -18   191.8    59.6   2
  10  21 -17    52.5    52.7   2
  10  21 -16   225.1    40.4   2
  10  21 -15    -1.5    35.3   2
  10  21 -14   -28.5    37.8   2
  10  21 -13   292.0    38.6   2
  10  21 -12    35.3    34.7   2
  10  21  -9   108.2    32.3   2
  10  21  -8   459.8    33.0   2
  10  21  -7   355.8    30.1   2
  10  21  -6    24.0    23.6   2
  10  21  -5    12.6    25.9   2
  10  21  -4    34.3    28.7   2
  10  21  -3   245.7    28.3   2
  10  21  -2   248.4    30.4   2
  10  21  -1     8.8    24.5   2
  10  21   1    81.0    33.6   2
  10  21   2   161.9    35.4   2
  10  21   3   414.8    34.2   2
  10  21   4    59.3    34.9   2
  10  21   6   -37.0    52.5   2
  10  21   8     7.7    51.5   2
  10  21   9    51.8    58.0   2
  10  21  12   -18.3   131.6   2
  10  21  13    44.3   153.2   2
  10  22 -21  -100.4    97.3   2
  10  22 -19   239.3    75.3   2
  10  22 -17    90.0    59.1   2
  10  22 -15   -40.8    41.1   2
  10  22 -13    11.3    42.4   2
  10  22 -11    36.6    30.3   2
  10  22  -9   -88.1    33.2   2
  10  22  -7   413.1    35.3   2
  10  22  -5   149.1    26.0   2
  10  22  -3   228.8    32.3   2
  10  22  -1   222.2    28.6   2
  10  22   1   160.4    37.3   2
  10  22   3   -40.9    33.8   2
  10  22   5   399.8    47.2   2
  10  22   7   -86.3    64.1   2
  10  22   9     5.1    63.6   2
  10  22  11   239.3    87.6   2
  10  23 -18   944.3    85.3   2
  10  23 -17   -67.1    54.6   2
  10  23 -16   237.0    51.4   2
  10  23 -14   -22.2    50.8   2
  10  23 -13   281.0    49.2   2
  10  23 -12  1111.8    52.9   2
  10  23 -11   315.6    35.1   2
  10  23  -9  -127.0    38.7   2
  10  23  -8    -6.4    36.0   2
  10  23  -7    25.2    35.5   2
  10  23  -6   348.2    30.3   2
  10  23  -5     8.8    27.3   2
  10  23  -4    23.9    34.9   2
  10  23  -3    -6.6    33.8   2
  10  23  -2    11.3    34.9   2
  10  23  -1   -42.1    29.4   2
  10  23   1   553.5    45.7   2
  10  23   2   415.8    47.3   2
  10  23   3   597.3    57.9   2
  10  23   4   -40.2    39.6   2
  10  23   6   325.7    66.8   2
  10  23   7    -6.1    72.6   2
  10  23   8   -33.6    83.4   2
  10  23   9    63.1    71.2   2
  10  23  11   -94.0    94.6   2
  10  24 -15    28.4    62.7   2
  10  24 -13   728.4    58.6   2
  10  24 -11   -68.6    37.8   2
  10  24  -9  1960.0    63.4   2
  10  24  -3     9.7    38.0   2
  10  24  -1   132.5    34.3   2
  10  24   1   -41.0    45.3   2
  10  24   3   310.8    53.6   2
  10  24   5   478.6    53.1   2
  10  24  11   -70.3   108.5   2
  10  25 -19  1147.9   122.2   2
  10  25 -18   193.3    78.4   2
  10  25 -17  1034.6    78.3   2
  10  25 -16  -106.4    79.5   2
  10  25 -14   123.5    67.1   2
  10  25 -13   863.0    67.6   2
  10  25 -12   188.3    58.4   2
  10  25 -11   -15.3    43.0   2
  10  25  -9   -15.6    52.9   2
  10  25  -8   506.0    50.0   2
  10  25  -7   -50.2    44.8   2
  10  25  -6   185.2    36.3   2
  10  25  -4  1017.4    52.3   2
  10  25  -2   217.0    45.6   2
  10  25  -1    36.8    37.8   2
  10  25   1   373.5    54.6   2
  10  25   2   -15.2    54.0   2
  10  25   3    31.4    57.7   2
  10  25   4   -66.3    51.4   2
  10  25   6   430.6    87.5   2
  10  25   7   -77.4    96.4   2
  10  25   8    12.5   108.7   2
  10  25   9  1510.2   140.3   2
  10  26 -17   -44.4    80.1   2
  10  26 -15   136.5    86.2   2
  10  26 -11   138.4    48.5   2
  10  26  -9   -67.6    55.1   2
  10  26  -7  1969.7    74.8   2
  10  26  -5   134.4    40.2   2
  10  26  -3   407.8    53.4   2
  10  26  -1   -48.6    40.4   2
  10  26   1   -22.6    58.5   2
  10  26   5   732.6    70.3   2
  10  26   7  -202.8   107.8   2
  10  26   9   311.0   142.7   2
  10  27 -16  -284.2   104.7   2
  10  27 -14   -12.3    87.7   2
  10  27 -13  1057.8    87.3   2
  10  27 -12  2375.8    84.2   2
  10  27 -11  1974.4    74.5   2
  10  27  -9   820.7    69.5   2
  10  27  -8  1859.6    80.5   2
  10  27  -6   965.5    52.7   2
  10  27  -5   273.4    43.8   2
  10  27  -4    -9.5    56.6   2
  10  27  -3   788.7    63.1   2
  10  27  -2   564.0    61.7   2
  10  27  -1   338.3    50.5   2
  10  27   1  -135.9    68.1   2
  10  27   2  -168.9    72.5   2
  10  27   3   247.5    78.8   2
  10  27   4   286.8    84.0   2
  10  27   6   -64.5    76.6   2
  10  27   8    58.1   140.9   2
  10  27   9   257.2   164.6   2
  10  28 -13  -161.2    94.3   2
  10  28 -11   976.9    68.1   2
  10  28  -9   229.0    72.6   2
  10  28  -7    -6.8    63.0   2
  10  28  -3   -46.6    63.5   2
  10  28  -1   155.1    52.7   2
  10  28   1  -172.5    77.1   2
  10  28   3   -24.8    89.9   2
  10  29 -15   193.8   136.0   2
  10  29 -14   737.1   125.0   2
  10  29 -13  1088.5   118.5   2
  10  29 -12   401.7    77.4   2
  10  29 -11  1150.6   104.1   2
  10  29  -9   -12.2    84.9   2
  10  29  -8   -50.2    77.0   2
  10  29  -7   166.1    74.2   2
  10  29  -6   -56.5    58.4   2
  10  29  -5    -1.1    74.1   2
  10  29  -4   325.4    80.7   2
  10  29  -3    60.2    74.0   2
  10  29  -2   -44.9    73.3   2
  10  29  -1   544.7    64.7   2
  10  29   1   723.4    95.7   2
  10  29   2    67.8    96.6   2
  10  29   3   823.5   107.6   2
  10  29   4   -75.1   106.7   2
  10  29   5    52.8    89.9   2
  10  29   6    50.2    99.2   2
  10  30 -13   643.9   100.9   2
  10  30 -11   515.4   117.8   2
  10  30  -9   -75.9    94.6   2
  10  30  -7  -117.4    86.3   2
  10  30  -3   100.9    90.1   2
  10  30  -1    23.8    69.3   2
  10  30   1   359.3   109.3   2
  10  30   3   -90.1   124.9   2
  10  31 -12  -103.2   101.8   2
  10  31  -9   127.5   116.8   2
  10  31  -8   102.5   110.2   2
  10  31  -7   -51.9    80.1   2
  10  31  -6   470.7    80.1   2
  10  31  -4   181.1   106.6   2
  10  31  -3   -35.8   103.5   2
  10  31  -2  -110.0   100.3   2
  10  31  -1   -91.4    79.9   2
  10  31   1   -92.8   123.2   2
  10  31   2   142.3   133.3   2
  10  31   3   -49.8   142.2   2
  10  31   4  -136.9   147.2   2
  10  32  -9    36.0   135.2   2
  10  32  -7  -150.9    90.2   2
  10  32  -3  -274.5   128.0   2
  10  33  -7   174.8   105.8   2
  10  33  -6   287.6   100.1   2
  10  33  -4  -175.1   148.4   2
  10  33  -2  -252.6   145.8   2
  10  33  -1     0.5   107.9   2
  11   0 -24    40.9    63.6   2
  11   0 -23   -10.9    54.1   2
  11   0 -21   -12.5    40.3   2
  11   0  -7    33.6    31.3   2
  11   0  -6   434.0    46.3   2
  11   0  -4   975.9    72.5   2
  11   0  -2   390.8    82.4   2
  11   0  -1    16.5    69.4   2
  11   1 -26   455.6    81.5   2
  11   1 -25    58.0    62.6   2
  11   1 -24   381.7    47.3   2
  11   1 -23   136.2    37.6   2
  11   1 -21   175.5    31.4   2
  11   1 -20   154.8    34.5   2
  11   1 -19    28.0    28.7   2
  11   1 -18   101.7    30.6   2
  11   1 -17     4.4    38.3   2
  11   1 -16   -11.6    33.6   2
  11   1 -15   616.4    33.8   2
  11   1 -14    30.5    34.4   2
  11   1 -13    60.0    33.4   2
  11   1 -12   143.6    45.4   2
  11   1  -9   292.0    58.6   2
  11   1  -8  2980.5   102.2   2
  11   1  -7   819.9    42.1   2
  11   1  -6  7496.0   195.6   2
  11   1  -5    35.4    51.7   2
  11   1   1   216.6    72.6   2
  11   2 -26   -32.5    81.7   2
  11   2 -25  -105.9    64.7   2
  11   2 -24    96.8    66.5   2
  11   2 -23    32.5    42.7   2
  11   2 -21    23.1    30.2   2
  11   2 -20   515.0    31.9   2
  11   2 -19   184.5    30.3   2
  11   2 -18   311.3    29.5   2
  11   2 -17   429.4    52.5   2
  11   2 -16   620.0    46.1   2
  11   2 -15  1145.2    49.3   2
  11   2 -14   203.7    51.8   2
  11   2 -13   649.2    52.3   2
  11   2 -12  3330.8    67.3   2
  11   2  -8   572.9    35.6   2
  11   2  -7    70.9    43.8   2
  11   2  -6  5024.7   215.5   2
  11   3 -26   -89.1    82.2   2
  11   3 -25   -42.9    64.6   2
  11   3 -24   380.9    54.8   2
  11   3 -23   -22.0    52.9   2
  11   3 -21   310.2    37.2   2
  11   3 -20   151.2    34.6   2
  11   3 -19     8.2    33.0   2
  11   3 -18   366.6    30.0   2
  11   3 -17  1440.2    45.7   2
  11   3 -16  1100.1    41.2   2
  11   3 -15    76.0    33.9   2
  11   3 -14   881.5    44.4   2
  11   3 -13    12.4    29.9   2
  11   3 -12   -31.6    28.0   2
  11   3 -10   259.6    44.2   2
  11   3  -9   161.9    26.8   2
  11   3  -8  9836.2   354.2   2
  11   3  -7  2320.8    74.0   2
  11   4 -26   157.9    86.1   2
  11   4 -25   197.2    68.0   2
  11   4 -24   243.1    55.9   2
  11   4 -23   -96.5    44.8   2
  11   4 -22   198.3    44.7   2
  11   4 -21    -9.6    36.4   2
  11   4 -20   603.6    44.6   2
  11   4 -19   -26.7    26.0   2
  11   4 -18   239.1    31.0   2
  11   4 -17   119.6    32.0   2
  11   4 -16   -14.4    27.2   2
  11   4 -14     5.7    31.6   2
  11   4 -13  1691.5    52.5   2
  11   4 -12  1320.6    68.5   2
  11   4  -9  2270.7    89.9   2
  11   4  -8  1526.7    65.0   2
  11   4  -7    57.6    21.5   2
  11   5 -26   683.6    88.0   2
  11   5 -25   -71.7    62.4   2
  11   5 -24   248.1    51.9   2
  11   5 -23   286.0    48.6   2
  11   5 -22   235.5    46.1   2
  11   5 -21   576.2    45.9   2
  11   5 -20   559.5    34.9   2
  11   5 -19   144.2    27.8   2
  11   5 -18   186.3    24.4   2
  11   5 -17   632.8    33.9   2
  11   5 -16    44.4    27.1   2
  11   5 -15   -10.0    32.6   2
  11   5 -14   160.4    31.1   2
  11   5 -13    16.4    30.2   2
  11   5 -10   579.8    29.4   2
  11   5  -9   932.0    51.3   2
  11   5  -8  1092.5    48.5   2
  11   5  -7  1114.5    35.7   2
  11   5  -5   237.3    29.6   2
  11   6 -26  2037.5    96.3   2
  11   6 -25   -98.0    65.0   2
  11   6 -24   -25.2    54.6   2
  11   6 -23   115.9    50.3   2
  11   6 -21   477.6    38.6   2
  11   6 -20  1303.3    43.8   2
  11   6 -19   581.3    31.5   2
  11   6 -18    13.0    24.4   2
  11   6 -17     8.0    26.1   2
  11   6 -16   237.8    24.5   2
  11   6 -15   216.5    26.8   2
  11   6 -14   -19.4    34.2   2
  11   6 -13    30.2    27.4   2
  11   6 -12   -17.6    40.0   2
  11   6 -11   154.6    43.7   2
  11   6 -10   176.5    26.0   2
  11   6  -9    54.2    36.6   2
  11   6  -8  1833.4    73.6   2
  11   6  -7   -14.0    24.9   2
  11   6  -5  1393.2    50.4   2
  11   7 -26  -106.4    85.7   2
  11   7 -25   -22.2    69.5   2
  11   7 -24   -76.0    56.4   2
  11   7 -23   807.0    65.4   2
  11   7 -21   -32.7    36.7   2
  11   7 -20   112.7    31.2   2
  11   7 -19   464.9    32.7   2
  11   7 -18  1512.6    55.3   2
  11   7 -17   186.4    28.8   2
  11   7 -16   -13.9    25.1   2
  11   7 -15   729.3    28.8   2
  11   7 -14   216.1    27.1   2
  11   7 -13   -14.9    22.7   2
  11   7 -12    38.1    26.4   2
  11   7 -10   437.8    39.9   2
  11   7  -9     8.7    37.2   2
  11   7  -8    45.9    18.4   2
  11   7  -7  1700.0    51.1   2
  11   7  -5    -1.9    22.2   2
  11   7  -3   850.3    39.5   2
  11   8 -25   852.5    80.8   2
  11   8 -24  1193.6    66.7   2
  11   8 -23    16.2    48.4   2
  11   8 -22   457.4    62.0   2
  11   8 -21     1.8    37.9   2
  11   8 -20   294.7    35.0   2
  11   8 -18   111.7    32.8   2
  11   8 -17   -13.2    27.5   2
  11   8 -16  2218.3    35.3   2
  11   8 -15   691.9    28.8   2
  11   8 -14    21.0    25.3   2
  11   8 -13   541.0    28.6   2
  11   8 -12  1749.6    51.8   2
  11   8  -9   811.4    31.3   2
  11   8  -8   534.1    23.7   2
  11   8  -5    22.6    31.5   2
  11   8  -3  1459.9    48.1   2
  11   9 -25  -145.1    77.9   2
  11   9 -24   286.2    59.8   2
  11   9 -23   240.8    52.4   2
  11   9 -21    89.3    73.9   2
  11   9 -19   241.5    38.7   2
  11   9 -18   208.5    34.2   2
  11   9 -17   -39.4    23.6   2
  11   9 -16   277.2    19.8   2
  11   9 -15   160.7    17.1   2
  11   9 -14   233.4    18.5   2
  11   9 -13   762.7    26.3   2
  11   9 -12   -17.5    20.7   2
  11   9  -9   606.6    24.1   2
  11   9  -8  1581.0    42.8   2
  11   9  -6   103.6    21.0   2
  11   9  -5   170.2    32.9   2
  11   9  -3  2043.4    55.1   2
  11  10 -25   -81.1    77.8   2
  11  10 -24   530.5    66.3   2
  11  10 -23   609.4    78.9   2
  11  10 -20   172.0    74.7   2
  11  10 -19    67.1    41.3   2
  11  10 -18   776.6    40.6   2
  11  10 -17    17.7    20.7   2
  11  10 -16     3.1    19.4   2
  11  10 -15   224.9    18.5   2
  11  10 -14   237.0    17.5   2
  11  10 -13    21.5    16.9   2
  11  10 -12   533.7    22.4   2
  11  10 -10   145.3    17.8   2
  11  10  -9   540.9    24.8   2
  11  10  -8    10.7    20.5   2
  11  10  -6   132.6    23.0   2
  11  10  -5   927.9    36.4   2
  11  10  -3   988.2    37.3   2
  11  11 -19   255.9    56.1   2
  11  11 -17   249.8    28.5   2
  11  11 -14   198.9    20.1   2
  11  11 -13  1092.6    25.3   2
  11  11 -12   143.1    19.2   2
  11  11  -9  1047.8    32.2   2
  11  11  -8   185.1    18.3   2
  11  11  -7    44.4    22.7   2
  11  11  -6   388.4    34.0   2
  11  11  -3    73.2    25.1   2
  11  12 -25   -63.7    89.5   2
  11  12 -24   123.0   121.6   2
  11  12 -22     6.1    95.6   2
  11  12 -21   201.0    87.8   2
  11  12 -20    24.4    50.5   2
  11  12 -19     9.9    34.8   2
  11  12 -18    94.7    27.1   2
  11  12 -17     2.7    23.4   2
  11  12 -16  1039.5    29.4   2
  11  12 -15    82.3    22.5   2
  11  12 -14   106.2    21.0   2
  11  12 -13   173.4    17.6   2
  11  12 -12   340.9    18.3   2
  11  12 -10   758.1    21.8   2
  11  12  -9   398.0    20.9   2
  11  12  -8  3094.1    48.5   2
  11  12  -7   347.3    21.1   2
  11  12  -6   156.1    26.3   2
  11  12  -5   228.7    27.3   2
  11  12  -3     1.8    26.4   2
  11  12   6   -36.8    44.8   2
  11  13 -23   -24.4    85.1   2
  11  13 -21    53.2    62.4   2
  11  13 -20    -8.5    52.9   2
  11  13 -19   997.1    45.1   2
  11  13 -18   -14.7    27.3   2
  11  13 -17    49.7    25.1   2
  11  13 -16   578.5    30.8   2
  11  13 -15   -14.7    23.9   2
  11  13 -14     4.7    21.8   2
  11  13 -13   280.9    19.4   2
  11  13 -10    42.2    17.5   2
  11  13  -9    65.5    17.2   2
  11  13  -8    80.7    20.5   2
  11  13  -7   318.4    22.1   2
  11  13  -6    -0.3    19.6   2
  11  13  -5   436.7    24.0   2
  11  13  -4   291.3    21.9   2
  11  13  -3   219.6    29.5   2
  11  13  -1   188.4    23.7   2
  11  13   5  1723.8    61.4   2
  11  13   6    12.5    46.9   2
  11  13   7   204.4    56.4   2
  11  13   9   700.3    60.7   2
  11  13  10   -18.1    62.9   2
  11  13  14   285.9    96.9   2
  11  14 -24   231.7   111.8   2
  11  14 -23   259.7    98.7   2
  11  14 -21   585.1    70.4   2
  11  14 -20   -24.8    45.2   2
  11  14 -19  2242.0    54.9   2
  11  14 -18    10.5    28.8   2
  11  14 -17   -36.6    25.5   2
  11  14 -16  2374.4    50.6   2
  11  14 -15  1443.7    40.0   2
  11  14 -13    10.5    18.6   2
  11  14 -12   135.5    18.7   2
  11  14 -11    16.5    18.4   2
  11  14 -10   383.8    21.0   2
  11  14  -9   287.9    17.7   2
  11  14  -8   108.6    16.6   2
  11  14  -7   122.2    18.1   2
  11  14  -6   119.6    18.1   2
  11  14  -5   582.7    27.7   2
  11  14  -4     1.1    21.1   2
  11  14  -3   180.1    31.3   2
  11  14  -2   570.4    27.9   2
  11  14  -1    37.9    24.4   2
  11  14   1   276.2    31.7   2
  11  14   2    97.3    32.8   2
  11  14   3    98.7    35.3   2
  11  14   4    93.0    36.6   2
  11  14   6   -82.5    49.4   2
  11  14   7   786.9    63.8   2
  11  14   8    38.5    47.7   2
  11  14   9   227.9    56.7   2
  11  14  10   -41.6    65.3   2
  11  14  12   -38.5    70.3   2
  11  14  13   106.8    85.4   2
  11  14  15     6.1   124.3   2
  11  15 -24  -213.7   125.5   2
  11  15 -23   411.4   106.0   2
  11  15 -22   350.6    88.7   2
  11  15 -21    69.9    55.9   2
  11  15 -20   758.6    46.4   2
  11  15 -19   576.6    39.5   2
  11  15 -18   331.2    32.6   2
  11  15 -17   221.5    33.9   2
  11  15 -16   456.3    32.8   2
  11  15 -14   203.7    22.8   2
  11  15 -13    -1.1    20.0   2
  11  15 -12    74.4    19.4   2
  11  15 -11    -6.8    22.5   2
  11  15 -10    59.1    17.6   2
  11  15  -9   134.0    18.0   2
  11  15  -8   116.4    17.7   2
  11  15  -7    50.8    19.4   2
  11  15  -6   122.7    19.6   2
  11  15  -5    99.0    19.9   2
  11  15  -4   -15.3    22.6   2
  11  15  -3    65.1    19.3   2
  11  15  -2   583.7    30.0   2
  11  15  -1    40.3    25.9   2
  11  15   1    24.7    23.8   2
  11  15   2    83.4    34.3   2
  11  15   3   382.0    40.6   2
  11  15   5   755.2    42.1   2
  11  15   6   331.0    40.8   2
  11  15   7   210.5    44.4   2
  11  15   8  1344.1    63.9   2
  11  15   9    52.5    58.7   2
  11  15  10   309.6    72.6   2
  11  15  11    10.2    60.2   2
  11  15  12   -38.2    74.4   2
  11  15  13    13.0    87.8   2
  11  15  14    -2.8   109.7   2
  11  16 -23  -127.9   111.1   2
  11  16 -20   222.1    44.0   2
  11  16 -19   284.8    40.1   2
  11  16 -18   498.8    44.4   2
  11  16 -17    45.3    36.1   2
  11  16 -15   -45.5    24.8   2
  11  16 -14   932.6    34.8   2
  11  16 -13   151.1    22.2   2
  11  16 -12   294.4    25.5   2
  11  16 -10   434.1    21.8   2
  11  16  -9    15.7    18.3   2
  11  16  -8   223.0    19.6   2
  11  16  -7  1193.4    31.6   2
  11  16  -6   206.4    19.0   2
  11  16  -5   718.5    23.6   2
  11  16  -4   -11.8    17.6   2
  11  16  -3   180.0    21.2   2
  11  16  -2   267.7    23.0   2
  11  16  -1   304.1    21.0   2
  11  16   1    62.6    25.9   2
  11  16   2   970.6    37.7   2
  11  16   3  1367.1    46.6   2
  11  16   4   229.9    35.2   2
  11  16   5    59.3    38.3   2
  11  16   7    28.5    37.4   2
  11  16   8   266.4    43.6   2
  11  16   9  2836.6    77.0   2
  11  16  10   120.6    53.0   2
  11  16  12   274.3    78.2   2
  11  16  13    32.1    96.3   2
  11  16  14   383.5   116.6   2
  11  17 -23   217.3   126.8   2
  11  17 -21    29.8    53.8   2
  11  17 -20   453.4    49.2   2
  11  17 -19  -110.4    46.8   2
  11  17 -18    19.7    43.8   2
  11  17 -15    89.8    28.0   2
  11  17 -13   436.0    26.9   2
  11  17 -12    37.9    25.9   2
  11  17 -10   327.9    22.6   2
  11  17  -9   155.0    20.3   2
  11  17  -8  1182.0    30.0   2
  11  17  -7   -29.3    22.0   2
  11  17  -6   175.5    20.0   2
  11  17  -5   542.2    22.7   2
  11  17  -4  1291.3    30.8   2
  11  17  -3    75.1    22.8   2
  11  17  -2   435.6    23.5   2
  11  17  -1    -1.2    20.0   2
  11  17   1  1929.5    47.9   2
  11  17   2    17.5    24.4   2
  11  17   3   364.1    28.8   2
  11  17   4    -0.1    28.1   2
  11  17   5   126.2    40.9   2
  11  17   6   100.2    34.5   2
  11  17   7   112.0    40.5   2
  11  17   8   920.6    52.2   2
  11  17   9   446.5    53.9   2
  11  17  10   -45.0    57.6   2
  11  17  12  -139.8   116.1   2
  11  17  13  -182.9   100.8   2
  11  17  14   -60.8   121.0   2
  11  18 -21   -24.6    59.6   2
  11  18 -19   861.5    59.7   2
  11  18 -18   575.4    51.3   2
  11  18 -17    -4.3    42.2   2
  11  18 -16   741.0    44.5   2
  11  18 -15   118.5    30.7   2
  11  18 -14     7.7    28.3   2
  11  18 -13    35.4    30.9   2
  11  18 -12    -1.2    29.5   2
  11  18 -10    -6.1    22.3   2
  11  18  -9   872.5    28.7   2
  11  18  -8     5.4    25.5   2
  11  18  -7   373.5    26.9   2
  11  18  -6   -32.3    20.7   2
  11  18  -5    56.1    20.6   2
  11  18  -4   506.9    24.1   2
  11  18  -3   -27.5    24.4   2
  11  18  -2   209.9    22.7   2
  11  18  -1    -5.7    21.8   2
  11  18   1  2111.1    50.5   2
  11  18   2  1913.8    52.4   2
  11  18   3   511.5    33.0   2
  11  18   4   371.8    33.0   2
  11  18   5   293.6    46.3   2
  11  18   6  3444.8    98.6   2
  11  18   7    59.6    42.5   2
  11  18   8   -39.9    48.4   2
  11  18   9   724.0    61.0   2
  11  18  10  2111.9    88.2   2
  11  18  12   183.9   127.5   2
  11  19 -21   -54.9    64.8   2
  11  19 -20   254.3    68.4   2
  11  19 -18   283.1    54.7   2
  11  19 -17    14.4    47.4   2
  11  19 -16   -52.4    35.4   2
  11  19 -14   846.4    36.5   2
  11  19 -13   166.1    34.4   2
  11  19 -12   -27.8    31.7   2
  11  19  -9   -35.5    23.0   2
  11  19  -7   157.5    27.3   2
  11  19  -6    -5.5    22.3   2
  11  19  -5   664.4    26.7   2
  11  19  -4     3.7    21.5   2
  11  19  -3   144.5    27.6   2
  11  19  -2   424.7    25.6   2
  11  19  -1   301.0    25.9   2
  11  19   1   508.2    36.7   2
  11  19   2   557.1    32.8   2
  11  19   3     1.5    30.8   2
  11  19   4   323.9    34.4   2
  11  19   5    23.0    34.9   2
  11  19   6   506.8    56.8   2
  11  19   7   508.4    49.6   2
  11  19   9   177.6    60.9   2
  11  19  10   117.1    69.6   2
  11  19  12  -155.8   138.4   2
  11  20 -19    74.4    68.5   2
  11  20 -18   -17.3    60.4   2
  11  20 -17   191.4    54.6   2
  11  20 -16   956.1    47.8   2
  11  20 -15   -37.6    35.7   2
  11  20 -14   -52.9    39.6   2
  11  20 -13   309.4    40.0   2
  11  20 -12   -67.9    34.9   2
  11  20  -9   -31.6    24.7   2
  11  20  -8    56.2    30.5   2
  11  20  -7   -68.2    28.5   2
  11  20  -6   223.3    25.1   2
  11  20  -5   213.5    25.4   2
  11  20  -4   415.1    32.5   2
  11  20  -3    26.4    30.8   2
  11  20  -2    64.5    25.4   2
  11  20  -1   217.4    27.0   2
  11  20   1    -8.0    35.7   2
  11  20   2   -17.6    37.9   2
  11  20   3  1452.1    48.9   2
  11  20   4    -6.6    35.8   2
  11  20   5   -22.0    37.2   2
  11  20   6    33.2    59.1   2
  11  20   7    36.1    66.3   2
  11  20   8    87.8    55.3   2
  11  20  10   290.9    78.7   2
  11  21 -20   723.7    89.4   2
  11  21 -19   116.1    76.3   2
  11  21 -17   138.6    48.9   2
  11  21 -15     4.4    39.8   2
  11  21 -14    42.1    45.0   2
  11  21 -13  6095.3   107.9   2
  11  21 -12    50.6    39.9   2
  11  21  -9    70.6    36.4   2
  11  21  -8   672.7    38.9   2
  11  21  -7     1.7    33.1   2
  11  21  -6   191.2    27.3   2
  11  21  -5   156.9    30.6   2
  11  21  -4   123.3    32.7   2
  11  21  -3   -72.1    32.7   2
  11  21  -2    56.9    28.0   2
  11  21  -1   364.0    30.8   2
  11  21   1   -54.9    40.3   2
  11  21   2   184.3    42.9   2
  11  21   3    21.1    36.8   2
  11  21   4   -57.9    39.8   2
  11  21   5   198.6    50.9   2
  11  21   6   -74.7    66.0   2
  11  21   7   -33.2    76.9   2
  11  21   8   300.3    65.3   2
  11  21   9   984.8    81.8   2
  11  22 -18   510.7    78.8   2
  11  22 -16   319.7    50.6   2
  11  22 -14   383.7    52.3   2
  11  22 -13   567.6    51.3   2
  11  22 -12    38.4    44.2   2
  11  22 -10    69.0    45.2   2
  11  22  -9   469.0    42.1   2
  11  22  -8   454.1    39.9   2
  11  22  -6   438.9    32.2   2
  11  22  -5   137.1    29.1   2
  11  22  -3   -38.4    35.0   2
  11  22  -2    -3.0    31.5   2
  11  22  -1  1330.7    46.4   2
  11  22   2   155.3    48.1   2
  11  22   3    64.9    40.2   2
  11  22   5    78.5    47.1   2
  11  22   6  1112.2    83.8   2
  11  22   7   305.8    83.7   2
  11  23 -20  -103.9   108.9   2
  11  23 -19   178.8    98.0   2
  11  23 -18   506.5    69.3   2
  11  23 -17   327.5    62.5   2
  11  23 -16   674.0    59.9   2
  11  23 -15  -110.4    59.9   2
  11  23 -14  2139.8    84.0   2
  11  23 -13   -11.9    53.9   2
  11  23  -9   407.7    45.8   2
  11  23  -8     3.9    43.7   2
  11  23  -7   -92.9    39.7   2
  11  23  -5    36.4    31.0   2
  11  23  -4   478.6    43.6   2
  11  23  -3   113.8    40.3   2
  11  23  -2   710.6    39.1   2
  11  23  -1    -8.6    33.4   2
  11  23   1    71.5    50.0   2
  11  23   2    26.7    52.2   2
  11  23   3   -49.3    45.0   2
  11  23   4   602.8    54.5   2
  11  23   5   -65.5    52.6   2
  11  23   6   -33.6    82.8   2
  11  23   7    -4.0    93.6   2
  11  23   9   704.1    95.9   2
  11  23  10  1057.0   113.5   2
  11  24 -19   176.8   113.7   2
  11  24 -18  1744.9    92.1   2
  11  24 -17    62.4    67.4   2
  11  24 -16   171.8    79.1   2
  11  24 -15   563.7    74.0   2
  11  24 -14    -6.5    67.3   2
  11  24 -12   353.1    46.9   2
  11  24 -10  -122.7    50.5   2
  11  24  -9   535.2    53.6   2
  11  24  -8    36.1    48.1   2
  11  24  -7   299.8    47.2   2
  11  24  -6   164.8    35.0   2
  11  24  -5  1117.8    44.9   2
  11  24  -4   -18.5    45.1   2
  11  24  -3   375.3    48.7   2
  11  24  -2   150.0    38.5   2
  11  24  -1  1072.1    49.3   2
  11  24   1   -25.0    56.2   2
  11  24   3   199.0    64.0   2
  11  24   4   -17.6    54.2   2
  11  24   5   139.7    58.6   2
  11  24   6  -135.2    93.3   2
  11  24   7   236.1   108.2   2
  11  24  10   733.7   123.8   2
  11  25 -18    50.7    84.3   2
  11  25 -17  -103.0    78.7   2
  11  25 -16   172.9    90.5   2
  11  25 -15   -36.3    82.8   2
  11  25 -14   908.9    86.3   2
  11  25 -13  -100.4    67.2   2
  11  25 -12    34.2    49.0   2
  11  25 -10  1685.8    76.9   2
  11  25  -9   222.4    55.2   2
  11  25  -8   600.4    58.7   2
  11  25  -6   604.6    42.7   2
  11  25  -5    -5.0    37.6   2
  11  25  -4   393.7    54.3   2
  11  25  -3   151.2    52.6   2
  11  25  -2   -65.3    51.0   2
  11  25  -1   -25.7    42.6   2
  11  25   1   -71.9    62.6   2
  11  25   2  -137.4    67.2   2
  11  25   3   447.6    74.6   2
  11  25   4    -8.5    60.7   2
  11  25   5   148.9    67.0   2
  11  25   6    74.0    70.5   2
  11  26 -17  1249.0   125.9   2
  11  26 -16   389.9   106.7   2
  11  26 -15   198.4    97.7   2
  11  26 -14    -3.2    87.4   2
  11  26 -12   375.1    57.3   2
  11  26 -10   846.5    72.2   2
  11  26  -9  1860.1    86.3   2
  11  26  -8   -52.3    59.0   2
  11  26  -7   186.3    46.2   2
  11  26  -6    14.3    45.7   2
  11  26  -5    71.0    58.6   2
  11  26  -4   -22.2    58.2   2
  11  26  -3  -114.0    59.2   2
  11  26  -2   -34.6    57.2   2
  11  26  -1     4.6    49.7   2
  11  26   1    69.9    74.5   2
  11  26   2   -82.1    77.5   2
  11  26   3   -67.9    82.3   2
  11  26   4   111.1    72.1   2
  11  26   5   574.8    76.6   2
  11  26   6  -123.6    76.2   2
  11  26   7   256.6   139.7   2
  11  26   8    76.9   158.9   2
  11  27 -15    31.8   115.9   2
  11  27 -14   594.2   101.2   2
  11  27 -13   527.6    93.5   2
  11  27 -12   390.7    65.8   2
  11  27 -10   -21.8    75.1   2
  11  27  -9   233.7    73.2   2
  11  27  -7   187.5    49.9   2
  11  27  -4   527.0    71.2   2
  11  27  -3   318.7    67.8   2
  11  27  -2     0.1    64.4   2
  11  27  -1    46.5    52.9   2
  11  27   1   -69.3    80.4   2
  11  27   2   -42.2    86.8   2
  11  27   3   851.1   103.8   2
  11  27   4   938.7    82.9   2
  11  27   6  -116.0    89.4   2
  11  28 -15  -162.3   129.8   2
  11  28 -12     4.3    74.3   2
  11  28 -10  1781.8   109.0   2
  11  28  -9    88.3    87.3   2
  11  28  -8   726.0    81.8   2
  11  28  -7   424.5    60.4   2
  11  28  -6   -93.8    56.5   2
  11  28  -5    -3.9    73.2   2
  11  28  -4   704.3    81.3   2
  11  28  -3   222.4    78.7   2
  11  28  -2    96.8    77.3   2
  11  28  -1   809.2    67.6   2
  11  28   1    83.0    97.6   2
  11  28   4   120.5   111.6   2
  11  28   5   -78.5    93.7   2
  11  28   6   -19.3   107.5   2
  11  29 -14  -340.5   139.0   2
  11  29 -13   378.5    92.1   2
  11  29 -12   -20.7    86.3   2
  11  29 -10  -149.3   101.2   2
  11  29  -9    43.6    94.3   2
  11  29  -8   -11.0    92.5   2
  11  29  -7   143.0    65.3   2
  11  29  -5   -56.7    87.2   2
  11  29  -4    14.1    91.1   2
  11  29  -3  -193.9    87.6   2
  11  29  -2    49.3    88.3   2
  11  29  -1    -9.6    68.0   2
  11  29   1   -45.8   106.3   2
  11  29   2   -69.5   118.7   2
  11  29   3   465.1   132.4   2
  11  29   5   -50.1   112.6   2
  11  30 -12   619.0   101.2   2
  11  30 -10   599.5   124.0   2
  11  30  -9  -260.4   112.5   2
  11  30  -7   596.4    80.3   2
  11  30  -6    90.2    74.9   2
  11  30  -5   791.1   108.0   2
  11  30  -4    98.9   103.7   2
  11  30  -2   -52.1   100.3   2
  11  30  -1   589.7    85.7   2
  11  30   1  -360.8   124.6   2
  11  30   2   356.0   135.5   2
  11  31 -10   193.4   141.8   2
  11  31  -9   109.5   130.6   2
  11  31  -8  -113.1   121.6   2
  11  31  -7   572.0    93.4   2
  11  31  -6  -246.6    87.7   2
  11  31  -5   714.9   125.4   2
  11  31  -4    16.0   120.2   2
  11  31  -3   -65.1   120.0   2
  11  31  -2   -65.3   115.5   2
  11  31  -1  -147.2    94.0   2
  11  31   2   -96.4   157.5   2
  11  32  -7   747.3   108.8   2
  11  32  -6  -154.2    98.4   2
  11  32  -4    80.9   141.3   2
  11  32  -3    17.5   140.5   2
  11  32  -1   904.5   119.2   2
  12   0 -25    70.1    87.8   2
  12   0  -5   -63.5    82.0   2
  12   1 -26    74.2    75.7   2
  12   1 -25   148.1    63.0   2
  12   1 -24    85.5    69.3   2
  12   1 -23    18.5    44.0   2
  12   1 -22   270.2    58.3   2
  12   1 -21    27.1    48.4   2
  12   1 -20   -31.1    51.1   2
  12   1 -19   -66.9    70.5   2
  12   1 -18   325.3    63.0   2
  12   1 -17    10.4    54.7   2
  12   1 -16   230.2    50.2   2
  12   1 -15    79.8    61.3   2
  12   1  -9   206.4    57.9   2
  12   1  -8   987.0   132.5   2
  12   1  -7   276.4    74.1   2
  12   1  -6   808.0    79.6   2
  12   2 -25   756.4    67.3   2
  12   2 -23   327.5    50.5   2
  12   2 -21   -45.8    48.6   2
  12   2 -19   -51.1    71.1   2
  12   2 -17   -15.1    69.3   2
  12   2  -7   125.0    66.3   2
  12   3 -26  -145.9    90.8   2
  12   3 -25   428.2    91.3   2
  12   3 -23   -74.6    61.2   2
  12   3 -22   -30.9    57.2   2
  12   3 -20   -69.4    45.3   2
  12   3 -19   809.6    59.5   2
  12   3 -17    21.2    42.3   2
  12   3 -16   470.7   133.1   2
  12   3 -14  1144.8    69.0   2
  12   3  -8   311.4    91.1   2
  12   4 -25   999.1    83.1   2
  12   4 -23   382.6    66.2   2
  12   4 -21    -4.3    40.4   2
  12   4 -19   228.7    56.0   2
  12   4 -17   626.3    50.3   2
  12   4 -15   -17.7    49.9   2
  12   4  -9   266.9    75.2   2
  12   5 -26   570.1    87.3   2
  12   5 -25   -78.2    80.7   2
  12   5 -23   314.2    75.1   2
  12   5 -22   -40.8    68.8   2
  12   5 -21    33.4    40.1   2
  12   5 -20   -11.3    34.8   2
  12   5 -19   605.3    60.5   2
  12   5 -18     1.0    47.4   2
  12   5 -17    27.6    40.8   2
  12   5 -16   -10.0    55.8   2
  12   5 -14   326.3    50.8   2
  12   5 -11   587.4    67.9   2
  12   5  -9  3022.4   171.1   2
  12   6 -25   109.6    84.8   2
  12   6 -23    10.1    74.4   2
  12   6 -19     6.6    32.2   2
  12   6 -17   -38.1    40.8   2
  12   6 -13   -76.9    76.2   2
  12   6 -11    86.8    37.8   2
  12   7 -25   300.9    89.0   2
  12   7 -23    55.0    57.6   2
  12   7 -22   -54.0    48.1   2
  12   7 -21   252.0    43.5   2
  12   7 -20   491.4    40.8   2
  12   7 -19    33.8    35.2   2
  12   7 -18    23.2    36.7   2
  12   7 -17   238.3    34.5   2
  12   7 -16   427.5    41.3   2
  12   7 -15   161.6    36.1   2
  12   7 -14  1948.2    58.9   2
  12   7 -13   607.1    46.8   2
  12   7  -8   166.5    30.7   2
  12   8 -25  -193.4   105.6   2
  12   8 -23    25.3    60.1   2
  12   8 -21  1107.1    55.9   2
  12   8 -19    -7.5    42.6   2
  12   8 -17    19.9    34.1   2
  12   8 -15     0.5    35.6   2
  12   8  -9   265.5    28.9   2
  12   9 -25   -35.6    87.6   2
  12   9 -23   211.3    64.0   2
  12   9 -22   -29.9    52.9   2
  12   9 -20   -38.5    51.2   2
  12   9 -19   416.1    47.5   2
  12   9 -17   255.2    24.3   2
  12   9 -16   -37.8    29.7   2
  12   9 -14   153.5    34.9   2
  12  10 -25  -113.7    94.0   2
  12  10 -23  1574.2    82.9   2
  12  10 -21    10.3    61.1   2
  12  10 -19   389.4    49.0   2
  12  10 -17  1271.7    35.9   2
  12  10 -15    27.1    23.3   2
  12  10 -13    94.8    29.9   2
  12  10 -11    20.0    23.1   2
  12  10  -9   -45.3    35.5   2
  12  11 -25   583.1   132.8   2
  12  11 -22  2437.9   107.0   2
  12  11 -21   218.8    68.4   2
  12  11 -20   -35.4    54.5   2
  12  11 -19   175.6    37.5   2
  12  11 -18   198.3    28.1   2
  12  11 -17   578.1    28.4   2
  12  11 -16   276.1    24.6   2
  12  11 -15    -3.9    20.7   2
  12  11 -14    17.3    22.7   2
  12  11 -11   101.3    25.2   2
  12  11 -10    88.3    30.9   2
  12  11  -9   257.9    33.3   2
  12  11  -7    64.3    31.2   2
  12  11  -6   432.8    38.4   2
  12  12 -17   -12.4    26.2   2
  12  12 -13   115.4    23.3   2
  12  12 -11    28.6    25.1   2
  12  12  -7   701.5    41.6   2
  12  13 -24    49.1   123.0   2
  12  13 -23    36.9   103.9   2
  12  13 -22   414.4    93.6   2
  12  13 -21   597.3    80.6   2
  12  13 -20  1094.8    56.4   2
  12  13 -19    86.0    35.7   2
  12  13 -18   206.9    32.1   2
  12  13 -17   741.7    33.1   2
  12  13 -16   545.4    34.2   2
  12  13 -15   -32.0    27.7   2
  12  13 -14   701.9    27.2   2
  12  13 -13   473.7    24.2   2
  12  13 -10   123.7    26.8   2
  12  13  -9   491.1    30.1   2
  12  13  -8   190.8    27.3   2
  12  13  -7   807.0    45.5   2
  12  13  -5   367.4    29.5   2
  12  14 -23  1217.8   123.5   2
  12  14 -21   -19.1    58.8   2
  12  14 -19   -30.6    40.1   2
  12  14 -17   -41.2    36.1   2
  12  14 -15    36.2    24.1   2
  12  14 -13   935.3    32.9   2
  12  14 -11   193.0    25.0   2
  12  14  -9   364.8    30.5   2
  12  14  -7  1381.3    59.8   2
  12  14  -5    65.7    28.4   2
  12  15 -23    46.1   122.7   2
  12  15 -22   -48.1    73.2   2
  12  15 -20   -44.6    44.9   2
  12  15 -19    40.0    39.2   2
  12  15 -17  1133.3    48.6   2
  12  15 -16    20.8    36.0   2
  12  15 -14    87.1    26.0   2
  12  15 -13   115.9    23.9   2
  12  15 -11   -20.7    25.4   2
  12  15 -10    -9.5    20.2   2
  12  15  -8   361.6    25.9   2
  12  15  -7   730.7    31.7   2
  12  15  -5    30.6    30.7   2
  12  15  -4   421.2    33.8   2
  12  15  -2   294.4    35.4   2
  12  15  -1   -24.7    35.1   2
  12  15   2   184.9    48.0   2
  12  15  10    21.7    98.0   2
  12  15  13   -39.8   119.0   2
  12  16 -23    59.9   128.3   2
  12  16 -21    57.4    57.1   2
  12  16 -19   335.3    52.0   2
  12  16 -17   761.2    47.4   2
  12  16 -15   274.8    30.4   2
  12  16 -13   843.4    32.4   2
  12  16 -11   194.2    23.2   2
  12  16  -9    85.2    21.7   2
  12  16  -7   757.9    33.0   2
  12  16  -5    39.0    32.8   2
  12  16  -3    69.1    26.2   2
  12  16  -1   209.5    38.3   2
  12  16   3  -135.6    55.4   2
  12  16   5   -10.4    48.8   2
  12  16  11   592.9   127.3   2
  12  16  13  -204.9   126.7   2
  12  17 -22   254.2    72.8   2
  12  17 -21   325.7    63.5   2
  12  17 -20    35.5    51.8   2
  12  17 -19    48.6    54.7   2
  12  17 -18   112.2    50.7   2
  12  17 -16  2141.1    53.1   2
  12  17 -15  2225.3    51.4   2
  12  17 -14  1482.5    41.7   2
  12  17 -13    21.3    26.9   2
  12  17 -11    21.0    24.1   2
  12  17 -10    17.8    23.8   2
  12  17  -9    43.1    23.3   2
  12  17  -8    33.3    22.3   2
  12  17  -7    14.1    22.5   2
  12  17  -6    61.2    22.3   2
  12  17  -5   313.9    23.8   2
  12  17  -4   830.0    35.9   2
  12  17  -3   702.0    33.7   2
  12  17  -2    37.7    29.8   2
  12  17  -1    36.0    40.6   2
  12  17   1     5.1    34.7   2
  12  17   2   462.9    41.1   2
  12  17   3    -1.7    58.7   2
  12  17   6   728.3    67.1   2
  12  17   7   458.1    69.5   2
  12  17   8   -69.7    58.9   2
  12  17   9    13.3    66.8   2
  12  17  10   -62.1    76.1   2
  12  18 -19   120.2    63.3   2
  12  18 -17   -14.6    49.7   2
  12  18 -13    13.6    36.4   2
  12  18 -11   790.0    33.3   2
  12  18  -7   395.9    26.5   2
  12  18  -5   274.3    25.8   2
  12  18  -1   -39.6    27.0   2
  12  18   1   -86.0    37.8   2
  12  18   5   -55.8    42.0   2
  12  18   7   -36.5    54.6   2
  12  18  11   695.8   101.8   2
  12  19 -21  -168.4    86.8   2
  12  19 -20    45.4    77.2   2
  12  19 -18    56.1    63.0   2
  12  19 -17   210.6    45.7   2
  12  19 -16  1368.1    53.9   2
  12  19 -15  3849.3    72.9   2
  12  19 -14  2966.6    74.4   2
  12  19 -13   354.7    43.3   2
  12  19 -11   701.3    34.7   2
  12  19 -10   106.7    29.3   2
  12  19  -9   313.4    29.4   2
  12  19  -7   254.8    27.3   2
  12  19  -6    60.0    26.0   2
  12  19  -5   480.0    29.3   2
  12  19  -4   -29.2    24.9   2
  12  19  -3   -16.3    31.9   2
  12  19  -2    -3.7    28.3   2
  12  19  -1   -22.5    29.1   2
  12  19   1  1516.7    58.4   2
  12  19   2    11.5    35.2   2
  12  19   3    62.1    38.6   2
  12  19   4  1080.0    51.8   2
  12  19   5   499.2    49.0   2
  12  19   6   408.3    73.6   2
  12  19   7  2618.3   101.4   2
  12  19   8   246.4    69.1   2
  12  19   9   622.9    82.2   2
  12  19  10  1647.3   111.0   2
  12  19  11   618.2   110.5   2
  12  20 -21   926.4   105.4   2
  12  20 -19   -24.0    78.4   2
  12  20 -17   -11.4    49.2   2
  12  20 -15   -32.7    41.4   2
  12  20 -13   150.0    44.8   2
  12  20 -11    -7.1    31.8   2
  12  20  -9   294.1    30.4   2
  12  20  -7   -50.7    28.0   2
  12  20  -5    37.6    27.7   2
  12  20  -3    -8.1    36.9   2
  12  20  -1   111.5    31.5   2
  12  20   1   -32.7    43.6   2
  12  20   3   423.3    43.6   2
  12  20   5   654.3    53.6   2
  12  20   7  2058.2   115.7   2
  12  20   9   869.7    93.3   2
  12  20  11  3499.2   163.3   2
  12  21 -20  -136.0    98.5   2
  12  21 -17   -52.5    54.5   2
  12  21 -16   293.0    51.3   2
  12  21 -14  4520.1   103.6   2
  12  21 -13   158.3    50.9   2
  12  21 -11  2907.3    69.7   2
  12  21 -10   842.8    39.9   2
  12  21  -8   353.6    43.2   2
  12  21  -7   -14.4    30.2   2
  12  21  -5   627.8    35.6   2
  12  21  -2  1446.5    47.6   2
  12  21  -1   293.6    35.6   2
  12  21   1   122.1    50.2   2
  12  21   2   770.5    47.1   2
  12  21   4   243.3    49.9   2
  12  21   5   457.5    57.1   2
  12  21  10  -140.4   104.4   2
  12  21  11   187.0   125.0   2
  12  22 -19  -152.8    99.5   2
  12  22 -17   132.6    61.8   2
  12  22 -15   673.0    68.8   2
  12  22 -13   651.0    59.3   2
  12  22 -11  1374.6    57.8   2
  12  22  -9   -47.7    46.3   2
  12  22  -7   -22.3    34.0   2
  12  22  -5   592.9    38.0   2
  12  22  -3   682.5    50.2   2
  12  22  -1    83.3    38.3   2
  12  22   1   182.5    55.7   2
  12  22   3   649.3    53.5   2
  12  22   5     7.4    60.3   2
  12  22   7   -63.8   105.7   2
  12  22   9   197.0   102.2   2
  12  23 -19     4.8   110.4   2
  12  23 -18  3048.8   117.5   2
  12  23 -17   -21.8    67.8   2
  12  23 -16  -174.8    78.4   2
  12  23 -15   174.5    75.3   2
  12  23 -14   872.8    78.2   2
  12  23 -13   -21.9    64.3   2
  12  23 -10   707.6    45.9   2
  12  23  -9   -32.3    51.0   2
  12  23  -7  1853.9    56.8   2
  12  23  -5   763.1    42.8   2
  12  23  -4   -18.7    48.8   2
  12  23  -3   687.8    53.7   2
  12  23  -2  4028.7    83.4   2
  12  23  -1   896.1    54.4   2
  12  23   1   272.2    62.5   2
  12  23   2   227.0    66.1   2
  12  23   3   -21.5    53.9   2
  12  23   4   156.6    60.7   2
  12  23   7  -152.0   120.6   2
  12  23   9   960.7   122.4   2
  12  24 -13   -10.7    70.4   2
  12  24 -11   760.3    53.6   2
  12  24  -7  4556.7    97.7   2
  12  24  -5   118.9    39.6   2
  12  24   1   236.5    70.4   2
  12  25 -17   -82.1   115.0   2
  12  25 -16   564.9   112.0   2
  12  25 -15  -153.5   100.4   2
  12  25 -14   -35.7    89.0   2
  12  25 -10    22.7    69.2   2
  12  25  -9  2025.6    88.8   2
  12  25  -8   746.0    68.0   2
  12  25  -7   349.5    48.2   2
  12  25  -6   269.9    48.9   2
  12  25  -5   130.7    61.5   2
  12  25  -4    64.9    61.9   2
  12  25  -2  1584.8    68.2   2
  12  25  -1   184.0    51.9   2
  12  25   1   271.4    80.9   2
  12  25   2   351.9    84.7   2
  12  25   3    -9.0    87.5   2
  12  25   4   138.6    73.1   2
  12  25   5     2.6    81.8   2
  12  26 -15  1044.2   122.7   2
  12  26 -13   145.8    70.5   2
  12  26 -11   512.8    62.2   2
  12  26  -9  -128.2    74.8   2
  12  26  -7   -42.5    52.7   2
  12  26  -5  2983.1   106.3   2
  12  26   1    22.0    88.1   2
  12  26   3   132.6   103.5   2
  12  26   5   -68.2    92.5   2
  12  27 -14   -14.9   118.3   2
  12  27 -13   -32.7    77.4   2
  12  27 -11   -99.7    93.8   2
  12  27 -10   380.6    95.9   2
  12  27  -7   100.0    60.1   2
  12  27  -4   180.2    81.7   2
  12  27  -2   -54.1    62.5   2
  12  27  -1    97.6    66.2   2
  12  27   1  -158.1   100.1   2
  12  27   2   -81.2   109.8   2
  12  27   4   446.5    98.0   2
  12  28 -13   345.8    91.4   2
  12  28 -11   -20.0   107.0   2
  12  28  -9  -183.6    95.1   2
  12  28  -7   -77.9    65.1   2
  12  28  -5   171.8    93.2   2
  12  28  -1   -56.9    73.5   2
  12  28   1   -50.0   118.0   2
  12  29 -13    57.4   105.0   2
  12  29 -11  -149.2   126.3   2
  12  29  -9    47.1   109.5   2
  12  29  -8   -75.7   104.3   2
  12  29  -7   -73.9    76.7   2
  12  29  -5   333.3   105.8   2
  12  29  -2   -72.4   105.0   2
  12  29  -1   530.0    88.3   2
  12  29   2  -208.9   150.3   2
  12  30  -7   189.0    87.5   2
  12  30  -5   500.5   127.1   2
  12  30  -1   340.4   102.6   2
  12  31  -3   -28.5   139.5   2
  13   0 -25    21.7   104.8   2
  13   1 -25   -30.3    72.3   2
  13   1 -24   445.4    82.7   2
  13   1 -23   -28.0    83.7   2
  13   1 -22   -62.0    99.5   2
  13   1 -21   228.5   107.7   2
  13   1 -19   348.2   117.2   2
  13   1 -18   641.9   107.0   2
  13   2 -25   392.9    86.4   2
  13   2 -24  1684.1    97.0   2
  13   2 -23   532.6    88.2   2
  13   2 -22     6.0    74.0   2
  13   2 -21   345.7   116.6   2
  13   3 -25    46.2   110.8   2
  13   3 -24  -200.5   105.9   2
  13   3 -23   146.1    89.1   2
  13   3 -22   195.0    80.8   2
  13   4 -25  -197.3   116.2   2
  13   4 -24   -93.9   106.3   2
  13   4 -23  1033.8   107.6   2
  13   4 -22   473.3    85.5   2
  13   4 -21   247.1    68.6   2
  13   4 -20   598.9    86.2   2
  13   5 -25    -5.3   115.3   2
  13   5 -24  -203.9   118.3   2
  13   5 -23   139.8    66.9   2
  13   5 -22   416.4    67.4   2
  13   5 -21  -177.3    67.2   2
  13   5 -20   986.5    97.2   2
  13   5 -19    48.5    73.3   2
  13   6 -25    26.0   136.5   2
  13   6 -24   -67.2    78.5   2
  13   6 -23   -76.0    67.7   2
  13   6 -22    -0.6    58.3   2
  13   6 -21   181.5    50.3   2
  13   6 -20  1053.0    74.6   2
  13   6 -19   443.4    78.7   2
  13   6 -18   488.9   108.8   2
  13   6 -17   -23.5    93.4   2
  13   7 -25  1373.3   112.9   2
  13   7 -24   140.0    81.0   2
  13   7 -23   -26.5    68.3   2
  13   7 -22    11.6    59.8   2
  13   7 -21   161.4    50.5   2
  13   7 -20   383.9    60.0   2
  13   7 -19   928.6    59.5   2
  13   7 -18   433.1    47.2   2
  13   8 -25  -130.7   104.4   2
  13   8 -24     0.1    84.9   2
  13   8 -23   -87.3    69.0   2
  13   8 -22   637.4    67.6   2
  13   8 -21    17.3    53.5   2
  13   8 -20   163.7    45.6   2
  13   8 -19    82.8    51.8   2
  13   8 -18   -13.0    44.4   2
  13   8 -16    37.4    52.8   2
  13   8 -15    17.3    48.3   2
  13   9 -25    85.9   105.1   2
  13   9 -24  -145.0    92.4   2
  13   9 -23   546.6    78.4   2
  13   9 -21     1.3    73.0   2
  13   9 -20    69.7    62.7   2
  13   9 -19   242.5    41.8   2
  13   9 -18   600.4    53.1   2
  13   9 -17   530.1    66.4   2
  13   9 -16   378.7    57.6   2
  13   9 -15   135.9    49.3   2
  13   9 -10   867.1    50.8   2
  13  10 -24  -186.2    91.7   2
  13  10 -22  1137.1   102.3   2
  13  10 -21  1108.1    88.3   2
  13  10 -20   128.7    46.5   2
  13  10 -19   199.7    35.3   2
  13  10 -18   964.2    38.9   2
  13  10 -17   212.3    42.2   2
  13  10 -16   748.0    65.2   2
  13  10 -15   190.4    50.2   2
  13  10 -11   295.7    41.4   2
  13  10  -9   -10.8    46.8   2
  13  11 -23   269.3   113.4   2
  13  11 -22   345.2    97.1   2
  13  11 -21   -52.3    78.5   2
  13  11 -20  1171.1    61.4   2
  13  11 -19   505.5    39.0   2
  13  11 -18   -29.9    31.6   2
  13  11 -17   159.4    30.6   2
  13  11 -16   125.2    33.0   2
  13  11 -15    42.8    29.8   2
  13  11 -14   -13.7    32.5   2
  13  11 -12    41.6    33.0   2
  13  11  -9   197.7    49.8   2
  13  12 -23   -10.3   115.5   2
  13  12 -22  -129.8    97.2   2
  13  12 -21   131.4    59.6   2
  13  12 -20  1739.3    59.2   2
  13  12 -19   -30.7    37.2   2
  13  12 -18   127.7    34.5   2
  13  12 -17     5.0    30.9   2
  13  12 -16   273.9    35.8   2
  13  12 -15    39.3    31.1   2
  13  12 -14  2005.7    60.7   2
  13  12 -11   426.7    50.3   2
  13  12  -9   263.1    51.3   2
  13  12  -8   107.8    49.4   2
  13  13 -20  1013.4    54.7   2
  13  13 -19   588.5    44.8   2
  13  13 -17   175.1    33.0   2
  13  13 -15    56.9    28.0   2
  13  13 -14    57.4    32.1   2
  13  13 -12   331.6    39.4   2
  13  13  -9  1019.4    47.0   2
  13  13  -8  2156.6    82.6   2
  13  14 -23  -111.4   132.2   2
  13  14 -22   162.4    80.5   2
  13  14 -21    15.1    55.2   2
  13  14 -20    62.8    48.3   2
  13  14 -19   329.2    44.0   2
  13  14 -18   909.5    44.4   2
  13  14 -17  1410.3    56.5   2
  13  14 -16   486.0    42.0   2
  13  14 -15     8.7    30.4   2
  13  14 -14   -32.6    29.1   2
  13  14 -12  2358.0    56.5   2
  13  14 -11  1128.7    40.7   2
  13  14 -10   126.2    38.1   2
  13  14  -9   264.8    40.3   2
  13  14  -8   528.3    60.3   2
  13  15 -23  -148.6   100.8   2
  13  15 -22    13.0    67.3   2
  13  15 -21    32.5    59.8   2
  13  15 -20   293.9    53.2   2
  13  15 -19   -96.8    45.5   2
  13  15 -18  3797.0    93.1   2
  13  15 -17  1603.0    62.8   2
  13  15 -16   -63.5    33.8   2
  13  15 -15   415.9    34.7   2
  13  15 -12   -21.2    33.9   2
  13  15 -11   271.3    34.4   2
  13  15 -10     0.5    41.1   2
  13  15  -9   -23.6    41.7   2
  13  15  -8   185.9    42.1   2
  13  15  -6    10.3    40.6   2
  13  15  -5   607.8    46.9   2
  13  16 -22  1043.4    80.8   2
  13  16 -21   137.0    67.4   2
  13  16 -20    69.9    54.8   2
  13  16 -19    37.4    62.4   2
  13  16 -18    38.8    55.4   2
  13  16 -17   252.2    51.7   2
  13  16 -15  1887.8    52.1   2
  13  16 -14   103.3    32.8   2
  13  16 -12   166.2    36.7   2
  13  16 -11   356.5    30.4   2
  13  16 -10    73.0    27.0   2
  13  16  -9   -31.4    31.8   2
  13  16  -8     8.9    33.0   2
  13  16  -6   141.9    44.4   2
  13  16  -5    32.4    44.6   2
  13  16  -2   356.6    52.7   2
  13  16  -1    57.3    54.9   2
  13  17 -21  -107.4    68.0   2
  13  17 -20   149.3    75.1   2
  13  17 -19    36.9    69.2   2
  13  17 -18   231.8    62.0   2
  13  17 -17  1601.6    60.9   2
  13  17 -16   702.0    45.5   2
  13  17 -14  1381.5    48.2   2
  13  17 -12     4.7    38.5   2
  13  17 -11     6.8    29.9   2
  13  17 -10  1761.4    49.2   2
  13  17  -8  4255.9    79.7   2
  13  17  -7   642.9    40.1   2
  13  17  -6  3173.2    87.9   2
  13  17  -5   416.5    49.4   2
  13  17  -2    59.4    53.5   2
  13  17  -1   177.1    58.0   2
  13  17   5   257.4    76.1   2
  13  17   6   -65.4    82.9   2
  13  18 -21   957.1   100.9   2
  13  18 -20  -156.9    83.4   2
  13  18 -19  -109.0    89.5   2
  13  18 -17   -26.5    47.1   2
  13  18 -16   882.9    50.9   2
  13  18 -15   233.9    42.2   2
  13  18 -14   220.5    38.1   2
  13  18 -12   297.6    34.1   2
  13  18 -11   284.4    33.6   2
  13  18 -10    62.3    30.8   2
  13  18  -9   700.9    36.3   2
  13  18  -8   285.6    40.5   2
  13  18  -7   -10.3    29.1   2
  13  18  -6   780.7    35.1   2
  13  18  -5  1234.1    50.2   2
  13  18  -3    11.3    39.8   2
  13  18  -2   -34.2    59.3   2
  13  18  -1   769.2    67.5   2
  13  18   1   234.4    51.1   2
  13  18   6    45.7    89.3   2
  13  18  10  1208.1   126.6   2
  13  19 -21   -37.5   103.3   2
  13  19 -20    86.8    93.5   2
  13  19 -18  -111.2    75.5   2
  13  19 -17    79.5    52.4   2
  13  19 -15   374.5    46.5   2
  13  19 -14   366.5    54.3   2
  13  19 -12   156.0    36.3   2
  13  19 -11   512.8    39.0   2
  13  19 -10   304.3    35.4   2
  13  19  -9  1048.1    41.9   2
  13  19  -8   -22.8    39.9   2
  13  19  -7   191.4    32.4   2
  13  19  -5   681.6    36.4   2
  13  19  -4    63.2    40.7   2
  13  19  -3   435.8    45.1   2
  13  19  -2   202.8    36.8   2
  13  19  -1   190.6    37.8   2
  13  19   1    -7.4    55.4   2
  13  19   2     4.6    58.5   2
  13  19   3    68.4    49.4   2
  13  19   4   460.8    78.9   2
  13  19   5    69.0    84.2   2
  13  19   6   193.3    97.5   2
  13  19   7  2004.9    99.6   2
  13  19   8  -112.0    91.4   2
  13  19   9   -19.4   105.8   2
  13  19  10   156.9   122.0   2
  13  20 -18   -57.1    61.4   2
  13  20 -17   -93.1    57.6   2
  13  20 -16    47.5    51.9   2
  13  20 -15   813.4    54.3   2
  13  20 -14    -3.7    57.5   2
  13  20 -12  -101.2    39.7   2
  13  20 -11  1390.7    52.8   2
  13  20 -10   217.0    38.4   2
  13  20  -9  1182.5    58.5   2
  13  20  -8   490.6    47.3   2
  13  20  -7   -13.6    34.4   2
  13  20  -6   394.2    40.2   2
  13  20  -5  1274.9    45.9   2
  13  20  -4   379.4    47.1   2
  13  20  -2   -20.5    38.1   2
  13  20  -1   266.3    40.8   2
  13  20   1   -32.6    61.0   2
  13  20   2   497.9    51.8   2
  13  20   3   648.1    56.9   2
  13  20   4   943.9    66.1   2
  13  20   5   -96.9    62.5   2
  13  20   6   408.8   108.1   2
  13  20   7   146.4    82.2   2
  13  20   8   408.2   101.7   2
  13  20   9   -73.8   115.7   2
  13  20  10   878.4   142.2   2
  13  21 -20    47.0   115.8   2
  13  21 -19    -9.1   104.2   2
  13  21 -18   115.2    72.9   2
  13  21 -17   -71.3    65.6   2
  13  21 -16  1272.0    70.2   2
  13  21 -15   106.0    71.9   2
  13  21 -14   690.9    70.7   2
  13  21 -12  1035.3    52.7   2
  13  21 -11   558.8    47.4   2
  13  21 -10   102.8    40.5   2
  13  21  -9   868.9    58.6   2
  13  21  -8   173.8    49.6   2
  13  21  -7   499.0    41.0   2
  13  21  -6  1713.5    54.6   2
  13  21  -5   892.5    45.1   2
  13  21  -4  1592.7    66.0   2
  13  21  -3   416.5    42.5   2
  13  21  -2  2564.5    68.0   2
  13  21  -1   226.4    44.5   2
  13  21   1   223.7    68.0   2
  13  21   2   262.3    54.8   2
  13  21   3   722.0    64.0   2
  13  21   5   410.3    74.4   2
  13  21   6   -86.9   115.6   2
  13  21   9   121.6   123.8   2
  13  22 -17  1852.9    90.9   2
  13  22 -15   -88.5    79.9   2
  13  22 -14   -55.1    73.8   2
  13  22 -12   -71.2    47.5   2
  13  22 -11   768.1    52.1   2
  13  22 -10   607.1    47.9   2
  13  22  -9     4.5    56.8   2
  13  22  -8   -18.4    51.3   2
  13  22  -7     4.2    40.4   2
  13  22  -6   157.7    43.5   2
  13  22  -5    88.2    40.9   2
  13  22  -4   136.5    55.2   2
  13  22  -3   205.2    44.2   2
  13  22  -2   394.4    48.9   2
  13  22  -1   182.3    47.5   2
  13  22   1   347.1    74.6   2
  13  22   2   509.6    60.4   2
  13  22   3   143.4    64.3   2
  13  22   4   -93.4    68.9   2
  13  22   5   304.5    78.9   2
  13  22   7  -135.0   144.9   2
  13  22   8  1130.2   121.5   2
  13  23 -17     3.5    78.2   2
  13  23 -16   234.5    97.5   2
  13  23 -15   375.2    91.2   2
  13  23 -14   170.3    83.3   2
  13  23 -11   -65.7    48.9   2
  13  23  -9   -20.6    62.3   2
  13  23  -8   179.3    63.0   2
  13  23  -7  1272.9    57.5   2
  13  23  -6   -35.4    45.6   2
  13  23  -5    33.9    43.7   2
  13  23  -4   103.3    61.4   2
  13  23  -2   411.2    52.7   2
  13  23  -1   658.8    56.8   2
  13  23   1   660.3    85.9   2
  13  23   2   792.9    91.8   2
  13  23   4  2022.1    98.2   2
  13  23   5    75.3    85.0   2
  13  23   6   111.1    91.2   2
  13  24 -17   -46.7   118.9   2
  13  24 -16  -191.1   113.8   2
  13  24 -15   801.6   112.5   2
  13  24 -14  1091.3   102.7   2
  13  24 -11    64.8    54.6   2
  13  24 -10   -39.0    72.1   2
  13  24  -9    -6.9    71.5   2
  13  24  -8   509.3    69.9   2
  13  24  -7   -88.7    49.8   2
  13  24  -6   -39.6    48.6   2
  13  24  -5   284.1    50.9   2
  13  24  -4   426.2    72.8   2
  13  24  -3   -78.8    67.1   2
  13  24  -1   608.7    61.5   2
  13  24   1    23.0    90.8   2
  13  24   2   940.7   106.9   2
  13  24   3  -142.1    78.2   2
  13  24   4   -54.7    84.7   2
  13  24   5   111.0    95.8   2
  13  24   6   210.3   104.9   2
  13  25 -16  -147.7   129.6   2
  13  25 -15  -128.0   114.1   2
  13  25 -14   580.0   111.2   2
  13  25 -11  -129.3    60.2   2
  13  25 -10   188.4    85.0   2
  13  25  -9   -55.9    78.1   2
  13  25  -8   -81.2    75.2   2
  13  25  -7    26.9    55.7   2
  13  25  -6   550.5    57.6   2
  13  25  -5    11.4    75.4   2
  13  25  -4    35.8    77.4   2
  13  25  -3   400.0    84.9   2
  13  25  -2   -69.9    65.4   2
  13  25   1    77.8   100.5   2
  13  25   2   -28.8   110.1   2
  13  25   3   305.9    86.0   2
  13  25   4   -19.5    95.5   2
  13  25   5  -110.2   106.6   2
  13  26 -14    56.2   119.7   2
  13  26 -11   -46.4    99.5   2
  13  26 -10   187.5    95.4   2
  13  26  -9     9.9    91.5   2
  13  26  -7   830.7    67.8   2
  13  26  -6   399.1    63.7   2
  13  26  -4   100.9    88.3   2
  13  26  -3   269.4    91.5   2
  13  26   1   132.5   119.4   2
  13  26   4  -226.9   109.1   2
  13  27 -11   160.6   110.8   2
  13  27 -10  -237.9   105.9   2
  13  27  -9   902.1   108.6   2
  13  27  -8   785.0    77.7   2
  13  27  -7   543.4    73.6   2
  13  27  -6  1006.4    76.5   2
  13  27  -5   540.0   100.9   2
  13  27  -4   579.2   109.2   2
  13  27  -3  1440.9   114.5   2
  13  27  -2   555.0    82.7   2
  13  27  -1   154.4    80.1   2
  13  27   1   236.1   130.7   2
  13  27   2  -128.0   138.0   2
  13  27   4    84.5   121.5   2
  13  28 -12   -63.2    91.4   2
  13  28 -10     8.4   124.0   2
  13  28  -9  -144.6   118.6   2
  13  28  -8   906.0    88.2   2
  13  28  -7   249.0    81.1   2
  13  28  -6   -35.5    78.8   2
  13  28  -5  -150.6   112.7   2
  13  28  -4   144.8   112.4   2
  13  28  -3  1604.4   134.7   2
  13  28  -1   138.9    93.3   2
  13  29 -10   307.3   149.7   2
  13  29  -9  -136.1   136.6   2
  13  29  -7    34.4    92.5   2
  13  29  -6    43.0    89.0   2
  13  29  -5  -370.6   133.6   2
  13  29  -4   -37.9   134.4   2
  13  29  -3  1668.8   149.5   2
  13  29  -2   150.8    99.6   2
  13  29  -1    43.3   105.9   2
  13  30  -8  -245.4   106.6   2
  13  30  -7     5.0   109.0   2
  13  30  -6   417.9   102.2   2
  13  30  -4   202.8   157.5   2
  14   1 -25   630.9   167.0   2
  14   1 -24    72.9   210.1   2
  14   1 -23   246.0   164.7   2
  14   2 -25    15.7   163.4   2
  14   2 -23   567.4   161.1   2
  14   3 -23   -47.8   117.8   2
  14   5 -24   743.8    99.1   2
  14   6 -25  1367.9   129.7   2
  14   6 -23    40.5    79.9   2
  14   7 -23   120.9    85.2   2
  14   7 -22   206.9    73.1   2
  14   8 -23   561.2    89.6   2
  14   8 -21   -15.3    85.8   2
  14   9 -24   -79.8   103.6   2
  14   9 -21   -10.2    87.5   2
  14   9 -20   130.0    79.0   2
  14  10 -21   -52.0    64.1   2
  14  11 -22    66.1   113.9   2
  14  11 -21    16.8    67.3   2
  14  11 -20  1736.4    66.1   2
  14  11 -19   215.3    44.6   2
  14  11 -13   317.0    62.2   2
  14  11 -12   435.1    64.1   2
  14  12 -23   285.9   140.3   2
  14  12 -21    -4.7    57.7   2
  14  12 -19   372.7    48.4   2
  14  12 -17   478.2    49.6   2
  14  12 -15  1170.1    60.9   2
  14  12 -13   438.7    54.5   2
  14  13 -22    64.2    85.7   2
  14  13 -21   -18.3    59.5   2
  14  13 -20    58.7    53.1   2
  14  13 -19    -2.2    48.5   2
  14  13 -18   243.5    45.8   2
  14  13 -17  1762.7    69.3   2
  14  13 -16    10.0    46.0   2
  14  13 -13  3056.4   115.2   2
  14  13  -9  5548.7   197.8   2
  14  14 -15   386.5    49.3   2
  14  14 -13   687.6    63.6   2
  14  15 -22   324.3    82.3   2
  14  15 -21   104.7    71.1   2
  14  15 -20  -136.0    62.0   2
  14  15 -19    21.5    67.4   2
  14  15 -18  -102.7    63.6   2
  14  15 -17   119.2    44.4   2
  14  15 -16   891.9    49.1   2
  14  15 -15    -0.8    41.2   2
  14  15 -12   -16.2    43.4   2
  14  15 -11   613.1    64.0   2
  14  15 -10   -54.3    59.2   2
  14  15  -9   -50.1    58.8   2
  14  16 -21   489.3    79.2   2
  14  16 -19   117.7    75.5   2
  14  16 -17  1043.9    56.6   2
  14  16 -13   -10.4    48.1   2
  14  16 -11   557.3    67.7   2
  14  17 -21  1887.7    98.6   2
  14  17 -20   786.6    97.4   2
  14  17 -19   675.0    88.6   2
  14  17 -18   628.2    80.1   2
  14  17 -16   387.4    50.9   2
  14  17 -15   116.0    46.0   2
  14  17 -13   -26.9    53.5   2
  14  17 -12   942.3    58.5   2
  14  17 -11   -30.9    46.8   2
  14  17 -10   802.0    76.0   2
  14  17  -8   -21.7    44.0   2
  14  17  -6   369.8    69.5   2
  14  18 -19    82.4    90.2   2
  14  18 -17    -1.4    57.2   2
  14  18 -15   266.4    53.4   2
  14  18 -13   150.9    59.0   2
  14  18 -11   167.2    40.1   2
  14  18  -9   192.4    50.5   2
  14  19 -20   128.1   114.5   2
  14  19 -18   330.9    70.8   2
  14  19 -17   265.9    65.0   2
  14  19 -16  -121.1    57.6   2
  14  19 -15    92.3    54.4   2
  14  19 -13   673.2    69.4   2
  14  19 -12  1762.7    62.8   2
  14  19 -11    62.6    42.3   2
  14  19 -10   160.1    43.3   2
  14  19  -9  1352.2    53.7   2
  14  19  -8   217.4    54.0   2
  14  19  -6   559.4    81.0   2
  14  19  -5  1025.8    61.9   2
  14  19  -4    34.1    57.2   2
  14  19   1   149.3    76.1   2
  14  20 -19  1141.5    92.2   2
  14  20 -15     8.6    76.9   2
  14  20 -13   251.4    50.7   2
  14  20 -11   275.2    47.9   2
  14  20  -9    97.1    59.3   2
  14  20  -7   484.1    45.1   2
  14  20  -5   -61.0    56.2   2
  14  20  -3    41.3    59.8   2
  14  20  -1    -9.1    68.4   2
  14  20   1   633.7    87.7   2
  14  21 -19   526.0    98.7   2
  14  21 -18   141.5    86.6   2
  14  21 -17     5.6    76.9   2
  14  21 -16   370.4    72.1   2
  14  21 -15  -234.2    89.0   2
  14  21 -13   289.1    55.6   2
  14  21 -12   728.2    59.2   2
  14  21 -11   -32.6    50.5   2
  14  21 -10    35.0    46.8   2
  14  21  -9   752.5    70.1   2
  14  21  -8   -43.7    45.5   2
  14  21  -6   -37.4    46.0   2
  14  21  -5    -1.2    45.8   2
  14  21  -4    40.3    64.6   2
  14  21  -3   142.8    50.5   2
  14  21  -2   463.2    56.5   2
  14  21  -1    20.6    56.1   2
  14  21   1    21.5    87.8   2
  14  21   2   131.8    71.0   2
  14  21   3    50.9    75.9   2
  14  21   4  1078.1    96.7   2
  14  21   5    36.9    95.2   2
  14  21   6   320.3   103.5   2
  14  22 -17  -195.3    85.1   2
  14  22 -15   419.1   101.7   2
  14  22 -13   342.4    62.8   2
  14  22 -11    21.1    54.5   2
  14  22  -9   239.8    72.5   2
  14  22  -7   -23.4    53.5   2
  14  22  -5    -3.5    49.5   2
  14  22  -1  -120.5    58.9   2
  14  22   1    41.2    96.1   2
  14  22   5  -140.2   102.5   2
  14  23 -16   -79.0   121.5   2
  14  23 -15   -34.2   108.7   2
  14  23 -13   -63.7    67.3   2
  14  23 -12    81.3    67.7   2
  14  23 -11   166.6    62.7   2
  14  23 -10   762.6    89.3   2
  14  23  -8    -5.7    55.3   2
  14  23  -7    98.1    55.9   2
  14  23  -6  1526.9    70.1   2
  14  23  -5    27.4    54.4   2
  14  23  -4  -107.9    80.7   2
  14  23  -3  1056.1    72.0   2
  14  23  -2   -13.4    63.5   2
  14  23  -1   -12.3    67.2   2
  14  23   1   275.0   111.2   2
  14  23   2  1217.3    93.5   2
  14  23   3    49.1    92.4   2
  14  23   4  1084.9   110.8   2
  14  23   5     3.7   109.1   2
  14  23   6  -236.8   123.0   2
  14  24 -15   775.5   134.4   2
  14  24 -13    32.8    77.9   2
  14  24 -11   -25.3    65.4   2
  14  24  -9   -31.8    91.0   2
  14  24  -5     8.4    84.5   2
  14  24  -3   222.8    66.6   2
  14  24  -1   482.8    77.1   2
  14  24   1    27.8   121.4   2
  14  24   3   321.2   105.8   2
  14  24   5   317.0   128.0   2
  14  25 -15   244.9   145.7   2
  14  25 -13   242.8    88.4   2
  14  25 -12  -103.0    79.2   2
  14  25 -10    21.4   104.0   2
  14  25  -9    16.8    98.3   2
  14  25  -8   181.7    68.7   2
  14  25  -7    65.0    69.8   2
  14  25  -6    29.2    67.8   2
  14  25  -5   601.5   105.7   2
  14  25  -4  -122.4    98.5   2
  14  25  -3    75.1    75.4   2
  14  25  -2     5.7    79.2   2
  14  25  -1    79.5    81.7   2
  14  25   1    31.6   135.6   2
  14  25   4  -333.6   125.3   2
  14  26  -9   780.5   119.4   2
  14  26  -5   -71.4   115.5   2
  14  26  -3   -70.2    81.1   2
  14  26   3   237.2   124.2   2
  14  27 -12   172.5    97.7   2
  14  27 -10   -81.4   135.9   2
  14  27  -9    53.5   125.3   2
  14  27  -8   725.0    92.9   2
  14  27  -6    -7.5    83.7   2
  14  27  -5   974.1   131.8   2
  14  27  -4  -191.5   127.5   2
  14  27  -2    20.2    99.3   2
  15   7 -24    22.7   119.6   2
  15   8 -24   132.7   120.0   2
  15   9 -23   136.3   103.2   2
  15  11 -21   164.3    67.3   2
  15  12 -22   302.3    79.0   2
  15  12 -20   538.1    67.3   2
  15  12 -19   -24.7    67.0   2
  15  13 -22   185.8    86.0   2
  15  13 -21  -119.9    73.4   2
  15  13 -20   841.6    73.0   2
  15  13 -19    51.0    74.7   2
  15  13 -18   -44.1    69.3   2
  15  13 -17  1134.9    75.4   2
  15  13 -16   -13.1    78.0   2
  15  14 -22    76.7    89.2   2
  15  14 -21   203.4    79.3   2
  15  14 -20   -26.3    71.8   2
  15  14 -19   -98.5    62.2   2
  15  14 -18  1089.3    85.5   2
  15  14 -17    63.8    69.4   2
  15  14 -16   -83.4    86.0   2
  15  15 -19    91.1    90.1   2
  15  15 -16   597.5    74.6   2
  15  15 -11    86.0    84.7   2
  15  16 -21   115.4    92.9   2
  15  16 -20   345.6   107.4   2
  15  16 -19   243.4    97.5   2
  15  16 -18   939.9    71.8   2
  15  16 -17   392.9    65.0   2
  15  16 -16   365.9    58.8   2
  15  16 -14   358.3    71.1   2
  15  16 -13    30.6    67.2   2
  15  16 -12   699.0    96.6   2
  15  17 -20    77.7   115.2   2
  15  17 -19   355.5   106.5   2
  15  17 -18   -13.1    69.4   2
  15  17 -16    43.0    61.3   2
  15  17 -14  1807.5    95.6   2
  15  17 -13  1024.1    81.9   2
  15  17 -12   198.3    99.5   2
  15  18 -19   139.7    82.8   2
  15  18 -17   224.4    73.8   2
  15  18 -16   245.4    68.0   2
  15  18 -14   272.2    81.6   2
  15  18 -13   -16.2    76.2   2
  15  19 -19   854.1   101.5   2
  15  19 -18   -15.1    85.5   2
  15  19 -16   661.7    78.6   2
  15  19 -14     3.6    85.1   2
  15  19 -13   852.4    66.4   2
  15  19 -12    -2.1    55.8   2
  15  19 -11    57.4    54.8   2
  15  19 -10   301.0    73.2   2
  15  19  -9   -78.9    73.6   2
  15  19  -8   -86.4    68.5   2
  15  20 -19  -176.1   104.8   2
  15  20 -18   344.5    97.2   2
  15  20 -17   -97.8    88.2   2
  15  20 -16   -21.8    78.2   2
  15  20 -14   -77.7    94.6   2
  15  20 -13    15.2    64.2   2
  15  20 -12   156.5    62.0   2
  15  20 -11    -8.2    58.0   2
  15  20  -9   485.5    83.0   2
  15  20  -8   -43.3    75.5   2
  15  20  -4    23.0    81.0   2
  15  21 -17   -89.8   101.2   2
  15  21 -16   126.9   122.0   2
  15  21 -14   164.2   103.5   2
  15  21 -13   -66.9    71.4   2
  15  21 -11   -32.8    64.3   2
  15  21 -10    66.6    60.4   2
  15  21  -8   -11.6    58.1   2
  15  21  -4   355.8    91.7   2
  15  22 -17    62.7   104.1   2
  15  22 -16  -125.2   134.4   2
  15  22 -14  1023.0    88.1   2
  15  22 -13  -142.7    76.5   2
  15  22 -12   547.0    75.6   2
  15  22 -11   388.1    73.8   2
  15  22 -10  1554.3   113.1   2
  15  22  -9   324.8    95.6   2
  15  22  -8  1600.9    82.2   2
  15  22  -7   -73.0    63.9   2
  15  22  -6  1366.9    78.5   2
  15  22  -5   368.1    67.6   2
  15  22  -4   164.0    99.4   2
  15  22  -3   191.6    72.4   2
  15  22  -2    55.1    78.1   2
  15  22  -1   124.3    82.2   2
  15  23 -16  -157.6   150.6   2
  15  23 -14   240.1    87.5   2
  15  23 -13   128.9    87.1   2
  15  23 -12   507.8    83.3   2
  15  23  -9  -115.9   101.9   2
  15  23  -8    66.1    72.0   2
  15  23  -7   428.7    73.2   2
  15  23  -6    29.4    71.5   2
  15  23  -4   164.2   110.2   2
  15  23  -3   147.4    77.2   2
  15  23  -2   602.3    89.8   2
  15  23  -1   137.5    88.3   2
  15  23   2   543.1   113.4   2
  15  23   3    78.9   124.3   2
  15  23   4    82.6   138.5   2
  15  24 -14   525.5   105.1   2
  15  24 -11   -37.7    79.3   2
  15  24 -10  1688.3   138.1   2
  15  24  -8    28.0    75.7   2
  15  24  -5    24.8   115.8   2
  15  24  -4   -29.1   118.9   2
  15  24  -2   519.7    96.5   2
  15  24  -1  -102.6    96.7   2
  15  25 -14   563.5   118.0   2
  15  25 -13   574.0   108.4   2
  15  25 -12   -93.9    98.9   2
  15  25  -8   -68.5    86.0   2
  15  25  -7  -211.0    89.3   2
  15  25  -6   235.1    85.2   2
  15  25  -4   506.5   135.7   2
  15  25  -3   190.4    99.4   2
  15  25  -2    41.8   102.3   2
  15  25  -1    87.2   107.6   2
  15  26 -12   810.7   119.5   2
  15  26 -10  1384.1   158.2   2
  15  26  -8   457.6   102.7   2
  15  26  -7  -129.6    95.5   2
  15  26  -6  1252.9   109.0   2
  15  26  -3   -92.9   109.1   2
  15  26  -1  1179.5   133.1   2
  15  27  -8   408.6   115.8   2
  15  27  -7   322.1   110.3   2
  16  13 -21   171.5    94.8   2
  16  13 -20  -106.4   101.3   2
  16  14 -21   -15.3    99.3   2
  16  14 -19   -42.5   107.1   2
  16  15 -20   489.6    97.6   2
  16  15 -19   395.6   121.8   2
  16  15 -18   154.4   111.0   2
  16  17 -19  -212.3    96.0   2
  16  17 -18    38.6    90.6   2
  16  17 -17   421.1    90.4   2
  16  17 -15   201.9   106.5   2
  16  17 -14   136.3   101.8   2
  16  18 -19   419.6   112.2   2
  16  18 -17   516.5   100.5   2
  16  19 -18   177.7   109.7   2
  16  19 -17    58.6   103.4   2
  16  19 -15    94.2   124.8   2
  16  19 -14   -58.4   115.7   2
  16  20 -17    -1.3   112.4   2
  16  20 -13   139.2    84.9   2
  16  20  -9   -27.4   107.0   2
  16  21 -14   520.7    98.3   2
  16  21 -13   325.0    92.7   2
  16  21 -12    59.2    86.0   2
  16  21 -11    -7.0    84.4   2
  16  22 -13   391.8    99.3   2
  16  22  -7    53.1    86.3   2
  16  23 -14    98.4   112.4   2
  16  23 -13  -163.6   108.5   2
  16  23 -12   565.6   107.0   2
  16  23 -11  -138.2    97.6   2
  16  23  -6  1667.6   109.3   2
  16  24 -13  -209.2   117.6   2
  16  24 -11  -162.5   103.0   2
  16  24  -9  -127.4   102.0   2
  16  24  -7    20.6   103.3   2
  16  24  -3    99.3   118.4   2
  16  24  -1   352.7   133.8   2
  16  25  -8   329.8   115.0   2
  16  25  -6   765.2   121.4   2
  16  25  -3  3773.3   189.0   2
  16  25  -2   113.7   135.8   2
  17  21 -14   796.0   130.8   2
  17  21 -13    47.8   116.8   2
  17  24  -8   451.2   141.3   2
;
_shelx_hkl_checksum               41230
_olex2_submission_special_instructions 'No special instructions were received'
loop_
  _twin_individual_id
  _twin_individual_mass_fraction_refined
 1 0.121(2)
 2 0.879(2)

